
 *** CALCULATION TRACE ***


<set objective = None>


*** INPUT SPECIFICATION MESSAGES ***

 CHANGES WERE MADE TO BLOCK        E110     02/05/2026   14:40:34:99 
 BLOCK E110 HEATER
     PARAM TEMP=235. PRES=0. DPPARMOPT=NO

 BLOCK        R100     IS GENERATED BECAUSE OF OTHER CHANGES 02/05/2026   14:40:34:99 
 BLOCK R100 RPLUG
     PARAM TYPE=ADIABATIC LENGTH=5. DIAM=1.600000000 NPHASE=1  &
         PHASE=V IGN-CAT-VOL=NO CAT-PRESENT=YES BED-VOIDAGE=0.5  &
         CAT-RHO=1775. OPT-PDROP=SPECIFIED
     BLOCK-OPTION FREE-WATER=NO
     REACTIONS RXN-IDS=R-01VD

 DISABLE      IS  NEW 02/05/2026   14:40:34:99 
 DISABLE
     SENSITIVITY S-CO2 S-REACT
     CALCULATOR C-H2
     DESIGN-SPEC D-MEOH D-SPLITH

 PDF updated                                                                      TIME =     96.30
 THIS COPY OF ASPEN PLUS LICENSED TO KOREA INSTITUTE OF SCIEN        
 
 DESIGN SPEC: D-H2 WILL BE INTERPRETED 
 DESIGN SPEC: D-MEOH WILL BE INTERPRETED 
 DESIGN SPEC: D-SPLITH WILL BE INTERPRETED 
 CALCULATOR BLOCK: C-4STAGE WILL BE INTERPRETED 
 CALCULATOR BLOCK: C-H2 WILL BE INTERPRETED 
 SENSITIVITY BLOCK: S-CO2 WILL BE INTERPRETED 
 SENSITIVITY BLOCK: S-REACT WILL BE INTERPRETED 
 

      CHECKING PHASE EQUILIBRIUM RESULTS                                          TIME =     96.67

Calculations begin                                                              time     96.68


      UOS BLOCK E110     MODEL: HEATER                                            TIME =     96.68
      KODE = 2  NTRIAL =   5  T = 508.1500  P = 7.500000E+06  V =  1.00000      Q = 2.230102E+06

      CONVERGENCE BLOCK $OLVER02  METHOD: SECANT                                  TIME =     96.68
      ITER   0 For Specs:        D-H2

      CONVERGENCE BLOCK $OLVER02  METHOD: SECANT                                  TIME =     96.68
      ITER   1 For Specs:        D-H2
      SPEC   1 ERROR =  0.62629E-01                          X =  0.35423    

  LOOP $OLVER02 ITER    1:     *** CONVERGED *** , MAX ERR/TOL     0.62629        TIME =     96.68

      UOS BLOCK R100     MODEL: RPLUG                                             TIME =     96.70
        AT REACTOR EXIT :
        LENGTH =   5.0000      DIAMETER =   1.6000      RESIDENCE TIME =   3.1928    
        PROCESS STREAM T =    566.12     P =   0.75000E+07 H =  -0.24219E+09 V =    1.0000    
        MIN T =   508.150     AT Z/LENGTH =   0.00000     MAX T =   566.125     AT Z/LENGTH =  0.900000    

      UOS BLOCK S100     MODEL: FSPLIT                                            TIME =     96.70
      NO. TEMP ITER =    5     TEMP =  566.125    
      KODE = 1  NTRIAL =   6  T = 566.1250  P = 7.500000E+06  V =  1.00000      Q =  0.00000    
      SPLIT FRACTIONS:  0.60000D+00    0.40000D+00

      UOS BLOCK HX220    MODEL: HEATX                                             TIME =     96.70
      SPECIFICATION: COLD OUTLET TEMP      481.15    
      FLOW TYPE:     COUNTERCURRENT  
      HOT:  TIN=  566.12  PIN=0.75000E+07   TOUT=  399.98  POUT=0.75000E+07
      COLD: TIN=  366.50  PIN=0.13900E+06   TOUT=  481.15  POUT=0.13900E+06
                              DUTY=0.63859E+07

      UOS BLOCK HX150    MODEL: HEATX                                             TIME =     96.70
      SPECIFICATION: COLD OUTLET TEMP      356.15    
      FLOW TYPE:     COUNTERCURRENT  
      HOT:  TIN=  399.98  PIN=0.75000E+07   TOUT=  386.63  POUT=0.75000E+07
      COLD: TIN=  301.50  PIN=0.30000E+06   TOUT=  356.15  POUT=0.30000E+06
                              DUTY=0.11138E+07

      UOS BLOCK M101     MODEL: MIXER                                             TIME =     96.71
      KODE = 1  NTRIAL =   4  T = 373.0890  P = 7.500000E+06  V = 0.943186      Q =  0.00000    

      UOS BLOCK E220     MODEL: HEATER                                            TIME =     96.71
      KODE = 2  NTRIAL =   4  T = 553.1500  P =  139000.      V =  1.00000      Q =  415301.    

      UOS BLOCK D200     MODEL: RADFRAC                                           TIME =     96.71

       Convergence iterations:
         OL   ML   IL     Err/Tol
          1    1    2     0.11888E-01

      UOS BLOCK S220     MODEL: FSPLIT                                            TIME =     96.71
      SPLIT FRACTIONS:  0.48500D+00    0.51500D+00

      CONVERGENCE BLOCK $OLVER01  METHOD: WEGSTEIN                                TIME =     96.71
      ITER   0 For Tear Streams: 115       120       221

      UOS BLOCK E120     MODEL: HEATER                                            TIME =     96.71
      KODE = 2  NTRIAL =   4  T = 308.1500  P = 7.500000E+06  V = 0.906368      Q =-8.909081E+06

      UOS BLOCK V120     MODEL: FLASH2                                            TIME =     96.71
      KODE = 1  NTRIAL =   6  T = 308.1500  P = 7.500000E+06  V = 0.906368      Q =  0.00000    

      UOS BLOCK S130     MODEL: FSPLIT                                            TIME =     96.71
      SPLIT FRACTIONS:  0.99000D+00    0.10000D-01

      UOS BLOCK VLV140   MODEL: VALVE                                             TIME =     96.71
      KODE = 1  NTRIAL =   9  T = 301.6422  P =  100000.      V = 3.974229E-02  Q =  0.00000    
      OUTLET PRES =   0.1000E+06 PRES DROP =   0.7400E+07

      UOS BLOCK V140     MODEL: FLASH2                                            TIME =     96.71
      KODE = 1  NTRIAL =   6  T = 301.6422  P =  100000.      V = 3.974229E-02  Q =  0.00000    

      UOS BLOCK SEP150   MODEL: SEP                                               TIME =     96.71
      ---FLASH OUTLET STREAM VENT2   :
      KODE = 2   NO. TEMP ITER =    1     TEMP =  301.642    
      KPHASE =    1 KODE =    2 T =  301.642     P =  100000.     Q =  0.00000    
      ---FLASH OUTLET STREAM 151     :
      KODE = 2  NTRIAL =   3  T = 301.6422  P =  100000.      V =  0.00000      Q =  0.00000    

      UOS BLOCK P150     MODEL: PUMP                                              TIME =     96.71
      VOL-FLOW   =  0.6400E-02 , DELTA P    =  0.2000E+06 , PUMP EFF   =  0.8000    
      FLUID PWR  =   1280.     , BRAKE PWR  =   1600.     , ELEC PWR   =   1600.    

      CONVERGENCE BLOCK $OLVER02  METHOD: SECANT                                  TIME =     96.71
      ITER   0 For Specs:        D-H2

      UOS BLOCK M100     MODEL: MIXER                                             TIME =     96.71
      NO. TEMP ITER =    4     TEMP =  328.828    
      KODE = 1  NTRIAL =   6  T = 328.8285  P = 7.500000E+06  V =  1.00000      Q =  0.00000    

      UOS BLOCK HX100    MODEL: HEATX                                             TIME =     96.71
      SPECIFICATION: COLD OUTLET TEMP      483.15    
      FLOW TYPE:     COUNTERCURRENT  
      HOT:  TIN=  566.12  PIN=0.75000E+07   TOUT=  364.37  POUT=0.75000E+07
      COLD: TIN=  328.83  PIN=0.75000E+07   TOUT=  483.15  POUT=0.75000E+07
                              DUTY=0.13656E+08

      UOS BLOCK E110     MODEL: HEATER                                            TIME =     96.71
      KODE = 2  NTRIAL =   5  T = 508.1500  P = 7.500000E+06  V =  1.00000      Q = 2.243494E+06

      CONVERGENCE BLOCK $OLVER02  METHOD: SECANT                                  TIME =     96.71
      ITER   1 For Specs:        D-H2
      SPEC   1 ERROR =  0.82041E-01                          X =  0.35423    

  LOOP $OLVER02 ITER    1:     *** CONVERGED *** , MAX ERR/TOL     0.82041        TIME =     96.71

      UOS BLOCK R100     MODEL: RPLUG                                             TIME =     96.99
        AT REACTOR EXIT :
        LENGTH =   5.0000      DIAMETER =   1.6000      RESIDENCE TIME =   3.1663    
        PROCESS STREAM T =    566.87     P =   0.75000E+07 H =  -0.24276E+09 V =    1.0000    
        MIN T =   508.150     AT Z/LENGTH =   0.00000     MAX T =   566.892     AT Z/LENGTH =  0.900149    

      UOS BLOCK S100     MODEL: FSPLIT                                            TIME =     96.99
      NO. TEMP ITER =    5     TEMP =  566.875    
      KODE = 1  NTRIAL =   6  T = 566.8746  P = 7.500000E+06  V =  1.00000      Q =  0.00000    
      SPLIT FRACTIONS:  0.60000D+00    0.40000D+00

      UOS BLOCK HX220    MODEL: HEATX                                             TIME =     96.99
      SPECIFICATION: COLD OUTLET TEMP      481.15    
      FLOW TYPE:     COUNTERCURRENT  
      HOT:  TIN=  566.87  PIN=0.75000E+07   TOUT=  400.31  POUT=0.75000E+07
      COLD: TIN=  366.50  PIN=0.13900E+06   TOUT=  481.15  POUT=0.13900E+06
                              DUTY=0.63859E+07

      UOS BLOCK HX150    MODEL: HEATX                                             TIME =     96.99
      SPECIFICATION: COLD OUTLET TEMP      356.15    
      FLOW TYPE:     COUNTERCURRENT  
      HOT:  TIN=  400.31  PIN=0.75000E+07   TOUT=  387.55  POUT=0.75000E+07
      COLD: TIN=  301.68  PIN=0.30000E+06   TOUT=  356.15  POUT=0.30000E+06
                              DUTY=0.10778E+07

      UOS BLOCK M101     MODEL: MIXER                                             TIME =     96.99
      KODE = 1  NTRIAL =   5  T = 374.2209  P = 7.500000E+06  V = 0.947900      Q =  0.00000    

      UOS BLOCK E220     MODEL: HEATER                                            TIME =     96.99
      KODE = 2  NTRIAL =   4  T = 553.1500  P =  139000.      V =  1.00000      Q =  415301.    

      UOS BLOCK D200     MODEL: RADFRAC                                           TIME =     97.00

       Convergence iterations:
         OL   ML   IL     Err/Tol
          1    1    9      23.038    
          2    1    4      3.3762    
          3    1    3     0.23574    

      UOS BLOCK S220     MODEL: FSPLIT                                            TIME =     97.00
      SPLIT FRACTIONS:  0.48500D+00    0.51500D+00

      CONVERGENCE BLOCK $OLVER01  METHOD: WEGSTEIN                                TIME =     97.00
      ITER   1 For Tear Streams: 115       120       221

      --FLASH TEAR STREAM 115     
      NO. TEMP ITER =    5     TEMP =  566.875    
      KODE = 1  NTRIAL =   6  T = 566.8746  P = 7.500000E+06  V =  1.00000      Q =  0.00000    

      --FLASH TEAR STREAM 120     
      KODE = 1  NTRIAL =   5  T = 372.7415  P = 7.500000E+06  V = 0.947164      Q =  0.00000    

      --FLASH TEAR STREAM 221     
      KODE = 1  NTRIAL =   4  T = 367.9188  P =  139000.      V = 8.959046E-04  Q =  0.00000    

  LOOP $OLVER01 ITER    1:  22 VARS NOT CONVERGED, MAX ERR/TOL     -13103.        TIME =     97.00

      UOS BLOCK E120     MODEL: HEATER                                            TIME =     97.00
      KODE = 2  NTRIAL =   4  T = 308.1500  P = 7.500000E+06  V = 0.911980      Q =-8.872882E+06

      UOS BLOCK V120     MODEL: FLASH2                                            TIME =     97.00
      KODE = 1  NTRIAL =   7  T = 308.1500  P = 7.500000E+06  V = 0.911980      Q =  0.00000    

      UOS BLOCK S130     MODEL: FSPLIT                                            TIME =     97.00
      SPLIT FRACTIONS:  0.99000D+00    0.10000D-01

      UOS BLOCK VLV140   MODEL: VALVE                                             TIME =     97.00
      KODE = 1  NTRIAL =   9  T = 301.9700  P =  100000.      V = 3.830438E-02  Q =  0.00000    
      OUTLET PRES =   0.1000E+06 PRES DROP =   0.7400E+07

      UOS BLOCK V140     MODEL: FLASH2                                            TIME =     97.00
      KODE = 1  NTRIAL =   6  T = 301.9700  P =  100000.      V = 3.830438E-02  Q =  0.00000    

      UOS BLOCK SEP150   MODEL: SEP                                               TIME =     97.00
      ---FLASH OUTLET STREAM VENT2   :
      KODE = 2   NO. TEMP ITER =    1     TEMP =  301.970    
      KPHASE =    1 KODE =    2 T =  301.970     P =  100000.     Q =  0.00000    
      ---FLASH OUTLET STREAM 151     :
      KODE = 2  NTRIAL =   3  T = 301.9700  P =  100000.      V =  0.00000      Q =  0.00000    

      UOS BLOCK P150     MODEL: PUMP                                              TIME =     97.00
      VOL-FLOW   =  0.6041E-02 , DELTA P    =  0.2000E+06 , PUMP EFF   =  0.8000    
      FLUID PWR  =   1208.     , BRAKE PWR  =   1510.     , ELEC PWR   =   1510.    

      CONVERGENCE BLOCK $OLVER02  METHOD: SECANT                                  TIME =     97.00
      ITER   0 For Specs:        D-H2

      UOS BLOCK M100     MODEL: MIXER                                             TIME =     97.00
      NO. TEMP ITER =    4     TEMP =  328.433    
      KODE = 1  NTRIAL =   6  T = 328.4328  P = 7.500000E+06  V =  1.00000      Q =  0.00000    

      UOS BLOCK HX100    MODEL: HEATX                                             TIME =     97.00
      SPECIFICATION: COLD OUTLET TEMP      483.15    
      FLOW TYPE:     COUNTERCURRENT  
      HOT:  TIN=  566.87  PIN=0.75000E+07   TOUT=  362.03  POUT=0.75000E+07
      COLD: TIN=  328.43  PIN=0.75000E+07   TOUT=  483.15  POUT=0.75000E+07
                              DUTY=0.13956E+08

      UOS BLOCK E110     MODEL: HEATER                                            TIME =     97.00
      KODE = 2  NTRIAL =   5  T = 508.1500  P = 7.500000E+06  V =  1.00000      Q = 2.286596E+06

      CONVERGENCE BLOCK $OLVER02  METHOD: SECANT                                  TIME =     97.00
      ITER   1 For Specs:        D-H2
      SPEC   1 ERROR =  0.15479     OLD X =  0.35423     NEW X =  0.19750    

  LOOP $OLVER02 ITER    1:   1 VARS NOT CONVERGED, MAX ERR/TOL      1.5479        TIME =     97.00

      UOS BLOCK C300     MODEL: COMPR                                             TIME =     97.00
      OUTLET TEMP =   436.9       OUTLET PRES =  0.2740E+07   INDICATED HP =  0.8025E+06   BRAKE HP =  0.8025E+06
      ISENTR TEMP =   398.1      CALC ISENTR EFF =  0.7200      ISENTR HP =  0.5778E+06  HP =  0.1585E+06

      UOS BLOCK E300     MODEL: HEATER                                            TIME =     97.00
      KODE = 2  NTRIAL =   1  T = 308.1500  P = 2.740000E+06  V =  1.00000      Q = -741855.    

      UOS BLOCK C301     MODEL: COMPR                                             TIME =     97.00
      OUTLET TEMP =   451.8       OUTLET PRES =  0.7500E+07   INDICATED HP =  0.8414E+06   BRAKE HP =  0.8414E+06
      ISENTR TEMP =   411.2      CALC ISENTR EFF =  0.7200      ISENTR HP =  0.6058E+06  HP =  0.1662E+06

      UOS BLOCK M100     MODEL: MIXER                                             TIME =     97.00
      NO. TEMP ITER =    4     TEMP =  321.979    
      KODE = 1  NTRIAL =   6  T = 321.9794  P = 7.500000E+06  V =  1.00000      Q =  0.00000    

      UOS BLOCK HX100    MODEL: HEATX                                             TIME =     97.00
      SPECIFICATION: COLD OUTLET TEMP      483.15    
      FLOW TYPE:     COUNTERCURRENT  
      HOT:  TIN=  566.87  PIN=0.75000E+07   TOUT=  363.62  POUT=0.75000E+07
      COLD: TIN=  321.98  PIN=0.75000E+07   TOUT=  483.15  POUT=0.75000E+07
                              DUTY=0.13802E+08

      UOS BLOCK E110     MODEL: HEATER                                            TIME =     97.00
      KODE = 2  NTRIAL =   5  T = 508.1500  P = 7.500000E+06  V =  1.00000      Q = 2.172233E+06

      CONVERGENCE BLOCK $OLVER02  METHOD: SECANT                                  TIME =     97.00
      ITER   2 For Specs:        D-H2
      SPEC   1 ERROR = -0.98594E-01                          X =  0.19750    

  LOOP $OLVER02 ITER    2:     *** CONVERGED *** , MAX ERR/TOL    -0.98594        TIME =     97.00

      UOS BLOCK R100     MODEL: RPLUG                                             TIME =     97.01
        AT REACTOR EXIT :
        LENGTH =   5.0000      DIAMETER =   1.6000      RESIDENCE TIME =   3.2798    
        PROCESS STREAM T =    567.98     P =   0.75000E+07 H =  -0.24484E+09 V =    1.0000    
        MIN T =   508.150     AT Z/LENGTH =   0.00000     MAX T =   567.983     AT Z/LENGTH =  0.800000    

      UOS BLOCK S100     MODEL: FSPLIT                                            TIME =     97.01
      NO. TEMP ITER =    5     TEMP =  567.981    
      KODE = 1  NTRIAL =   6  T = 567.9815  P = 7.500000E+06  V =  1.00000      Q =  0.00000    
      SPLIT FRACTIONS:  0.60000D+00    0.40000D+00

      UOS BLOCK HX220    MODEL: HEATX                                             TIME =     97.01
      SPECIFICATION: COLD OUTLET TEMP      481.15    
      FLOW TYPE:     COUNTERCURRENT  
      HOT:  TIN=  567.98  PIN=0.75000E+07   TOUT=  399.21  POUT=0.75000E+07
      COLD: TIN=  367.92  PIN=0.13900E+06   TOUT=  481.15  POUT=0.13900E+06
                              DUTY=0.62299E+07

      UOS BLOCK HX150    MODEL: HEATX                                             TIME =     97.01
      SPECIFICATION: COLD OUTLET TEMP      356.15    
      FLOW TYPE:     COUNTERCURRENT  
      HOT:  TIN=  399.21  PIN=0.75000E+07   TOUT=  386.56  POUT=0.75000E+07
      COLD: TIN=  302.01  PIN=0.30000E+06   TOUT=  356.15  POUT=0.30000E+06
                              DUTY=0.10219E+07

      UOS BLOCK M101     MODEL: MIXER                                             TIME =     97.01
      KODE = 1  NTRIAL =   4  T = 373.1359  P = 7.500000E+06  V = 0.948329      Q =  0.00000    

      UOS BLOCK E220     MODEL: HEATER                                            TIME =     97.01
      KODE = 2  NTRIAL =   3  T = 553.1500  P =  139000.      V =  1.00000      Q =  399151.    

      UOS BLOCK D200     MODEL: RADFRAC                                           TIME =     97.01

       Convergence iterations:
         OL   ML   IL     Err/Tol
          1    1   10      55.075    
          2    1    4      8.0965    
          3    1    4     0.65045    

      UOS BLOCK S220     MODEL: FSPLIT                                            TIME =     97.01
      SPLIT FRACTIONS:  0.48500D+00    0.51500D+00

      CONVERGENCE BLOCK $OLVER01  METHOD: WEGSTEIN                                TIME =     97.01
      ITER   2 For Tear Streams: 115       120       221

      --FLASH TEAR STREAM 115     
      NO. TEMP ITER =    5     TEMP =  567.981    
      KODE = 1  NTRIAL =   6  T = 567.9815  P = 7.500000E+06  V =  1.00000      Q =  0.00000    

      --FLASH TEAR STREAM 120     
      KODE = 1  NTRIAL =   4  T = 370.1747  P = 7.500000E+06  V = 0.945576      Q =  0.00000    

      --FLASH TEAR STREAM 221     
      KODE = 1  NTRIAL =   4  T = 370.1165  P =  139000.      V = 5.543273E-03  Q =  0.00000    

  LOOP $OLVER01 ITER    2:  22 VARS NOT CONVERGED, MAX ERR/TOL     -23466.        TIME =     97.01

      UOS BLOCK E120     MODEL: HEATER                                            TIME =     97.02
      KODE = 2  NTRIAL =   4  T = 308.1500  P = 7.500000E+06  V = 0.912601      Q =-8.300213E+06

      UOS BLOCK V120     MODEL: FLASH2                                            TIME =     97.02
      KODE = 1  NTRIAL =   6  T = 308.1500  P = 7.500000E+06  V = 0.912601      Q =  0.00000    

      UOS BLOCK S130     MODEL: FSPLIT                                            TIME =     97.02
      SPLIT FRACTIONS:  0.99000D+00    0.10000D-01

      UOS BLOCK VLV140   MODEL: VALVE                                             TIME =     97.02
      KODE = 1  NTRIAL =   9  T = 301.6172  P =  100000.      V = 4.024186E-02  Q =  0.00000    
      OUTLET PRES =   0.1000E+06 PRES DROP =   0.7400E+07

      UOS BLOCK V140     MODEL: FLASH2                                            TIME =     97.02
      KODE = 1  NTRIAL =   9  T = 301.6172  P =  100000.      V = 4.024186E-02  Q =  0.00000    

      UOS BLOCK SEP150   MODEL: SEP                                               TIME =     97.02
      ---FLASH OUTLET STREAM VENT2   :
      KODE = 2   NO. TEMP ITER =    1     TEMP =  301.617    
      KPHASE =    1 KODE =    2 T =  301.617     P =  100000.     Q =  0.00000    
      ---FLASH OUTLET STREAM 151     :
      KODE = 2  NTRIAL =   3  T = 301.6172  P =  100000.      V =  0.00000      Q =  0.00000    

      UOS BLOCK P150     MODEL: PUMP                                              TIME =     97.02
      VOL-FLOW   =  0.5897E-02 , DELTA P    =  0.2000E+06 , PUMP EFF   =  0.8000    
      FLUID PWR  =   1179.     , BRAKE PWR  =   1474.     , ELEC PWR   =   1474.    

      CONVERGENCE BLOCK $OLVER02  METHOD: SECANT                                  TIME =     97.02
      ITER   0 For Specs:        D-H2

      UOS BLOCK M100     MODEL: MIXER                                             TIME =     97.02
      NO. TEMP ITER =    4     TEMP =  322.161    
      KODE = 1  NTRIAL =   6  T = 322.1607  P = 7.500000E+06  V =  1.00000      Q =  0.00000    

      UOS BLOCK HX100    MODEL: HEATX                                             TIME =     97.02
      SPECIFICATION: COLD OUTLET TEMP      483.15    
      FLOW TYPE:     COUNTERCURRENT  
      HOT:  TIN=  567.98  PIN=0.75000E+07   TOUT=  360.06  POUT=0.75000E+07
      COLD: TIN=  322.16  PIN=0.75000E+07   TOUT=  483.15  POUT=0.75000E+07
                              DUTY=0.13618E+08

      UOS BLOCK E110     MODEL: HEATER                                            TIME =     97.02
      KODE = 2  NTRIAL =   5  T = 508.1500  P = 7.500000E+06  V =  1.00000      Q = 2.145851E+06

      CONVERGENCE BLOCK $OLVER02  METHOD: SECANT                                  TIME =     97.02
      ITER   1 For Specs:        D-H2
      SPEC   1 ERROR = -0.20440     OLD X =  0.19750     NEW X =  0.10000    

  LOOP $OLVER02 ITER    1:   1 VARS NOT CONVERGED, MAX ERR/TOL     -2.0440        TIME =     97.02

      UOS BLOCK C300     MODEL: COMPR                                             TIME =     97.02
      OUTLET TEMP =   436.9       OUTLET PRES =  0.2740E+07   INDICATED HP =  0.4063E+06   BRAKE HP =  0.4063E+06
      ISENTR TEMP =   398.1      CALC ISENTR EFF =  0.7200      ISENTR HP =  0.2925E+06  HP =  0.4063E+05

      UOS BLOCK E300     MODEL: HEATER                                            TIME =     97.02
      KODE = 2  NTRIAL =   1  T = 308.1500  P = 2.740000E+06  V =  1.00000      Q = -375617.    

      UOS BLOCK C301     MODEL: COMPR                                             TIME =     97.02
      OUTLET TEMP =   451.8       OUTLET PRES =  0.7500E+07   INDICATED HP =  0.4260E+06   BRAKE HP =  0.4260E+06
      ISENTR TEMP =   411.2      CALC ISENTR EFF =  0.7200      ISENTR HP =  0.3067E+06  HP =  0.4260E+05

      UOS BLOCK M100     MODEL: MIXER                                             TIME =     97.02
      NO. TEMP ITER =    4     TEMP =  317.771    
      KODE = 1  NTRIAL =   6  T = 317.7708  P = 7.500000E+06  V =  1.00000      Q =  0.00000    

      UOS BLOCK HX100    MODEL: HEATX                                             TIME =     97.02
      SPECIFICATION: COLD OUTLET TEMP      483.15    
      FLOW TYPE:     COUNTERCURRENT  
      HOT:  TIN=  567.98  PIN=0.75000E+07   TOUT=  361.11  POUT=0.75000E+07
      COLD: TIN=  317.77  PIN=0.75000E+07   TOUT=  483.15  POUT=0.75000E+07
                              DUTY=0.13521E+08

      UOS BLOCK E110     MODEL: HEATER                                            TIME =     97.02
      KODE = 2  NTRIAL =   5  T = 508.1500  P = 7.500000E+06  V =  1.00000      Q = 2.074787E+06

      CONVERGENCE BLOCK $OLVER02  METHOD: SECANT                                  TIME =     97.02
      ITER   2 For Specs:        D-H2
      SPEC   1 ERROR = -0.36097     OLD X =  0.10000     NEW X =  0.32479    

  LOOP $OLVER02 ITER    2:   1 VARS NOT CONVERGED, MAX ERR/TOL     -3.6097        TIME =     97.02

      UOS BLOCK C300     MODEL: COMPR                                             TIME =     97.02
      OUTLET TEMP =   436.9       OUTLET PRES =  0.2740E+07   INDICATED HP =  0.1320E+07   BRAKE HP =  0.1320E+07
      ISENTR TEMP =   398.1      CALC ISENTR EFF =  0.7200      ISENTR HP =  0.9502E+06  HP =  0.4286E+06

      UOS BLOCK E300     MODEL: HEATER                                            TIME =     97.02
      KODE = 2  NTRIAL =   1  T = 308.1500  P = 2.740000E+06  V =  1.00000      Q =-1.219959E+06

      UOS BLOCK C301     MODEL: COMPR                                             TIME =     97.02
      OUTLET TEMP =   451.8       OUTLET PRES =  0.7500E+07   INDICATED HP =  0.1384E+07   BRAKE HP =  0.1384E+07
      ISENTR TEMP =   411.2      CALC ISENTR EFF =  0.7200      ISENTR HP =  0.9962E+06  HP =  0.4494E+06

      UOS BLOCK M100     MODEL: MIXER                                             TIME =     97.02
      NO. TEMP ITER =    4     TEMP =  327.492    
      KODE = 1  NTRIAL =   6  T = 327.4923  P = 7.500000E+06  V =  1.00000      Q =  0.00000    

      UOS BLOCK HX100    MODEL: HEATX                                             TIME =     97.02
      SPECIFICATION: COLD OUTLET TEMP      483.15    
      FLOW TYPE:     COUNTERCURRENT  
      HOT:  TIN=  567.98  PIN=0.75000E+07   TOUT=  358.68  POUT=0.75000E+07
      COLD: TIN=  327.49  PIN=0.75000E+07   TOUT=  483.15  POUT=0.75000E+07
                              DUTY=0.13745E+08

      UOS BLOCK E110     MODEL: HEATER                                            TIME =     97.03
      KODE = 2  NTRIAL =   5  T = 508.1500  P = 7.500000E+06  V =  1.00000      Q = 2.238688E+06

      CONVERGENCE BLOCK $OLVER02  METHOD: SECANT                                  TIME =     97.03
      ITER   3 For Specs:        D-H2
      SPEC   1 ERROR =   0.0000                              X =  0.32479    

  LOOP $OLVER02 ITER    3:     *** CONVERGED *** , MAX ERR/TOL      0.0000        TIME =     97.03

      UOS BLOCK R100     MODEL: RPLUG                                             TIME =     97.03
        AT REACTOR EXIT :
        LENGTH =   5.0000      DIAMETER =   1.6000      RESIDENCE TIME =   3.1649    
        PROCESS STREAM T =    569.03     P =   0.75000E+07 H =  -0.24707E+09 V =    1.0000    
        MIN T =   508.150     AT Z/LENGTH =   0.00000     MAX T =   569.033     AT Z/LENGTH =  0.800000    

      UOS BLOCK S100     MODEL: FSPLIT                                            TIME =     97.03
      NO. TEMP ITER =    5     TEMP =  569.031    
      KODE = 1  NTRIAL =   6  T = 569.0311  P = 7.500000E+06  V =  1.00000      Q =  0.00000    
      SPLIT FRACTIONS:  0.60000D+00    0.40000D+00

      UOS BLOCK HX220    MODEL: HEATX                                             TIME =     97.03
      SPECIFICATION: COLD OUTLET TEMP      481.15    
      FLOW TYPE:     COUNTERCURRENT  
      HOT:  TIN=  569.03  PIN=0.75000E+07   TOUT=  403.12  POUT=0.75000E+07
      COLD: TIN=  370.12  PIN=0.13900E+06   TOUT=  481.15  POUT=0.13900E+06
                              DUTY=0.60717E+07

      UOS BLOCK HX150    MODEL: HEATX                                             TIME =     97.03
      SPECIFICATION: COLD OUTLET TEMP      356.15    
      FLOW TYPE:     COUNTERCURRENT  
      HOT:  TIN=  403.12  PIN=0.75000E+07   TOUT=  391.56  POUT=0.75000E+07
      COLD: TIN=  301.65  PIN=0.30000E+06   TOUT=  356.15  POUT=0.30000E+06
                              DUTY=0.10019E+07

      UOS BLOCK M101     MODEL: MIXER                                             TIME =     97.03
      KODE = 1  NTRIAL =   4  T = 373.1686  P = 7.500000E+06  V = 0.950282      Q =  0.00000    

      UOS BLOCK E220     MODEL: HEATER                                            TIME =     97.03
      KODE = 2  NTRIAL =   3  T = 553.1500  P =  139000.      V =  1.00000      Q =  382819.    

      UOS BLOCK D200     MODEL: RADFRAC                                           TIME =     97.03

       Convergence iterations:
         OL   ML   IL     Err/Tol
          1    1    9      22.336    
          2    1    4      1.8174    
          3    1    5     0.23649    

      UOS BLOCK S220     MODEL: FSPLIT                                            TIME =     97.04
      SPLIT FRACTIONS:  0.48500D+00    0.51500D+00

      CONVERGENCE BLOCK $OLVER01  METHOD: WEGSTEIN                                TIME =     97.04
      ITER   3 For Tear Streams: 115       120       221

      --FLASH TEAR STREAM 115     
      NO. TEMP ITER =    5     TEMP =  570.155    
      KODE = 1  NTRIAL =   6  T = 570.1548  P = 7.500000E+06  V =  1.00000      Q =  0.00000    

      --FLASH TEAR STREAM 120     
      KODE = 1  NTRIAL =   5  T = 370.8873  P = 7.500000E+06  V = 0.947895      Q =  0.00000    

      --FLASH TEAR STREAM 221     
      KODE = 1  NTRIAL =   4  T = 372.4757  P =  139000.      V = 1.096232E-02  Q =  0.00000    

  LOOP $OLVER01 ITER    3:  22 VARS NOT CONVERGED, MAX ERR/TOL     -14776.        TIME =     97.04

      UOS BLOCK E120     MODEL: HEATER                                            TIME =     97.04
      KODE = 2  NTRIAL =   4  T = 308.1500  P = 7.500000E+06  V = 0.914003      Q =-8.245929E+06

      UOS BLOCK V120     MODEL: FLASH2                                            TIME =     97.04
      KODE = 1  NTRIAL =   6  T = 308.1500  P = 7.500000E+06  V = 0.914003      Q =  0.00000    

      UOS BLOCK S130     MODEL: FSPLIT                                            TIME =     97.04
      SPLIT FRACTIONS:  0.99000D+00    0.10000D-01

      UOS BLOCK VLV140   MODEL: VALVE                                             TIME =     97.04
      KODE = 1  NTRIAL =   9  T = 301.2221  P =  100000.      V = 4.246863E-02  Q =  0.00000    
      OUTLET PRES =   0.1000E+06 PRES DROP =   0.7400E+07

      UOS BLOCK V140     MODEL: FLASH2                                            TIME =     97.04
      KODE = 1  NTRIAL =   6  T = 301.2221  P =  100000.      V = 4.246863E-02  Q =  0.00000    

      UOS BLOCK SEP150   MODEL: SEP                                               TIME =     97.04
      ---FLASH OUTLET STREAM VENT2   :
      KODE = 2   NO. TEMP ITER =    1     TEMP =  301.222    
      KPHASE =    1 KODE =    2 T =  301.222     P =  100000.     Q =  0.00000    
      ---FLASH OUTLET STREAM 151     :
      KODE = 2  NTRIAL =   3  T = 301.2221  P =  100000.      V =  0.00000      Q =  0.00000    

      UOS BLOCK P150     MODEL: PUMP                                              TIME =     97.04
      VOL-FLOW   =  0.5652E-02 , DELTA P    =  0.2000E+06 , PUMP EFF   =  0.8000    
      FLUID PWR  =   1130.     , BRAKE PWR  =   1413.     , ELEC PWR   =   1413.    

      CONVERGENCE BLOCK $OLVER02  METHOD: SECANT                                  TIME =     97.04
      ITER   0 For Specs:        D-H2

      UOS BLOCK M100     MODEL: MIXER                                             TIME =     97.04
      NO. TEMP ITER =    4     TEMP =  327.761    
      KODE = 1  NTRIAL =   6  T = 327.7614  P = 7.500000E+06  V =  1.00000      Q =  0.00000    

      UOS BLOCK HX100    MODEL: HEATX                                             TIME =     97.04
      SPECIFICATION: COLD OUTLET TEMP      483.15    
      FLOW TYPE:     COUNTERCURRENT  
      HOT:  TIN=  570.15  PIN=0.75000E+07   TOUT=  366.00  POUT=0.75000E+07
      COLD: TIN=  327.76  PIN=0.75000E+07   TOUT=  483.15  POUT=0.75000E+07
                              DUTY=0.13529E+08

      UOS BLOCK E110     MODEL: HEATER                                            TIME =     97.04
      KODE = 2  NTRIAL =   5  T = 508.1500  P = 7.500000E+06  V =  1.00000      Q = 2.207350E+06

      CONVERGENCE BLOCK $OLVER02  METHOD: SECANT                                  TIME =     97.04
      ITER   1 For Specs:        D-H2
      SPEC   1 ERROR = -0.13814     OLD X =  0.32479     NEW X =  0.41081    

  LOOP $OLVER02 ITER    1:   1 VARS NOT CONVERGED, MAX ERR/TOL     -1.3814        TIME =     97.04

      UOS BLOCK C300     MODEL: COMPR                                             TIME =     97.04
      OUTLET TEMP =   436.9       OUTLET PRES =  0.2740E+07   INDICATED HP =  0.1669E+07   BRAKE HP =  0.1669E+07
      ISENTR TEMP =   398.1      CALC ISENTR EFF =  0.7200      ISENTR HP =  0.1202E+07  HP =  0.6857E+06

      UOS BLOCK E300     MODEL: HEATER                                            TIME =     97.04
      KODE = 2  NTRIAL =   1  T = 308.1500  P = 2.740000E+06  V =  1.00000      Q =-1.543089E+06

      UOS BLOCK C301     MODEL: COMPR                                             TIME =     97.04
      OUTLET TEMP =   451.8       OUTLET PRES =  0.7500E+07   INDICATED HP =  0.1750E+07   BRAKE HP =  0.1750E+07
      ISENTR TEMP =   411.2      CALC ISENTR EFF =  0.7200      ISENTR HP =  0.1260E+07  HP =  0.7190E+06

      UOS BLOCK M100     MODEL: MIXER                                             TIME =     97.04
      NO. TEMP ITER =    4     TEMP =  331.160    
      KODE = 1  NTRIAL =   6  T = 331.1601  P = 7.500000E+06  V =  1.00000      Q =  0.00000    

      UOS BLOCK HX100    MODEL: HEATX                                             TIME =     97.04
      SPECIFICATION: COLD OUTLET TEMP      483.15    
      FLOW TYPE:     COUNTERCURRENT  
      HOT:  TIN=  570.15  PIN=0.75000E+07   TOUT=  365.15  POUT=0.75000E+07
      COLD: TIN=  331.16  PIN=0.75000E+07   TOUT=  483.15  POUT=0.75000E+07
                              DUTY=0.13614E+08

      UOS BLOCK E110     MODEL: HEATER                                            TIME =     97.04
      KODE = 2  NTRIAL =   5  T = 508.1500  P = 7.500000E+06  V =  1.00000      Q = 2.270100E+06

      CONVERGENCE BLOCK $OLVER02  METHOD: SECANT                                  TIME =     97.04
      ITER   2 For Specs:        D-H2
      SPEC   1 ERROR = -0.13923E-02                          X =  0.41081    

  LOOP $OLVER02 ITER    2:     *** CONVERGED *** , MAX ERR/TOL    -0.13923E-01    TIME =     97.04

      UOS BLOCK R100     MODEL: RPLUG                                             TIME =     97.04
        AT REACTOR EXIT :
        LENGTH =   5.0000      DIAMETER =   1.6000      RESIDENCE TIME =   3.1124    
        PROCESS STREAM T =    570.25     P =   0.75000E+07 H =  -0.25086E+09 V =    1.0000    
        MIN T =   508.150     AT Z/LENGTH =   0.00000     MAX T =   570.260     AT Z/LENGTH =  0.750279    

      UOS BLOCK S100     MODEL: FSPLIT                                            TIME =     97.05
      NO. TEMP ITER =    5     TEMP =  570.250    
      KODE = 1  NTRIAL =   6  T = 570.2495  P = 7.500000E+06  V =  1.00000      Q =  0.00000    
      SPLIT FRACTIONS:  0.60000D+00    0.40000D+00

      UOS BLOCK HX220    MODEL: HEATX                                             TIME =     97.05
      SPECIFICATION: COLD OUTLET TEMP      481.15    
      FLOW TYPE:     COUNTERCURRENT  
      HOT:  TIN=  570.25  PIN=0.75000E+07   TOUT=  407.23  POUT=0.75000E+07
      COLD: TIN=  372.48  PIN=0.13900E+06   TOUT=  481.15  POUT=0.13900E+06
                              DUTY=0.57494E+07

      UOS BLOCK HX150    MODEL: HEATX                                             TIME =     97.05
      SPECIFICATION: COLD OUTLET TEMP      356.15    
      FLOW TYPE:     COUNTERCURRENT  
      HOT:  TIN=  407.23  PIN=0.75000E+07   TOUT=  396.69  POUT=0.75000E+07
      COLD: TIN=  301.26  PIN=0.30000E+06   TOUT=  356.15  POUT=0.30000E+06
                              DUTY=0.96747E+06

      UOS BLOCK M101     MODEL: MIXER                                             TIME =     97.05
      KODE = 1  NTRIAL =   5  T = 378.8420  P = 7.500000E+06  V = 0.957881      Q =  0.00000    

      UOS BLOCK E220     MODEL: HEATER                                            TIME =     97.05
      KODE = 2  NTRIAL =   3  T = 553.1500  P =  139000.      V =  1.00000      Q =  357806.    

      UOS BLOCK D200     MODEL: RADFRAC                                           TIME =     97.05

       Convergence iterations:
         OL   ML   IL     Err/Tol
          1    1    9      20.176    
          2    1    4      1.8618    
          3    1    5     0.21393    

      UOS BLOCK S220     MODEL: FSPLIT                                            TIME =     97.05
      SPLIT FRACTIONS:  0.48500D+00    0.51500D+00

      CONVERGENCE BLOCK $OLVER01  METHOD: WEGSTEIN                                TIME =     97.05
      ITER   4 For Tear Streams: 115       120       221

      --FLASH TEAR STREAM 115     
      NO. TEMP ITER =    5     TEMP =  580.240    
      KODE = 1  NTRIAL =   6  T = 580.2398  P = 7.500000E+06  V =  1.00000      Q =  0.00000    

      --FLASH TEAR STREAM 120     
      KODE = 1  NTRIAL =   5  T = 389.9612  P = 7.500000E+06  V = 0.972636      Q =  0.00000    

      --FLASH TEAR STREAM 221     
      KODE = 1  NTRIAL =   4  T = 372.0888  P =  139000.      V = 2.623078E-03  Q =  0.00000    

  LOOP $OLVER01 ITER    4:  22 VARS NOT CONVERGED, MAX ERR/TOL      6341.9        TIME =     97.05

      UOS BLOCK E120     MODEL: HEATER                                            TIME =     97.05
      KODE = 2  NTRIAL =   4  T = 308.1500  P = 7.500000E+06  V = 0.916018      Q =-1.232646E+07

      UOS BLOCK V120     MODEL: FLASH2                                            TIME =     97.05
      KODE = 1  NTRIAL =   6  T = 308.1500  P = 7.500000E+06  V = 0.916018      Q =  0.00000    

      UOS BLOCK S130     MODEL: FSPLIT                                            TIME =     97.05
      SPLIT FRACTIONS:  0.99000D+00    0.10000D-01

      UOS BLOCK VLV140   MODEL: VALVE                                             TIME =     97.05
      KODE = 1  NTRIAL =   9  T = 301.1520  P =  100000.      V = 4.254316E-02  Q =  0.00000    
      OUTLET PRES =   0.1000E+06 PRES DROP =   0.7400E+07

      UOS BLOCK V140     MODEL: FLASH2                                            TIME =     97.05
      KODE = 1  NTRIAL =   6  T = 301.1520  P =  100000.      V = 4.254316E-02  Q =  0.00000    

      UOS BLOCK SEP150   MODEL: SEP                                               TIME =     97.05
      ---FLASH OUTLET STREAM VENT2   :
      KODE = 2   NO. TEMP ITER =    1     TEMP =  301.152    
      KPHASE =    1 KODE =    2 T =  301.152     P =  100000.     Q =  0.00000    
      ---FLASH OUTLET STREAM 151     :
      KODE = 2  NTRIAL =   3  T = 301.1520  P =  100000.      V =  0.00000      Q =  0.00000    

      UOS BLOCK P150     MODEL: PUMP                                              TIME =     97.05
      VOL-FLOW   =  0.5849E-02 , DELTA P    =  0.2000E+06 , PUMP EFF   =  0.8000    
      FLUID PWR  =   1170.     , BRAKE PWR  =   1462.     , ELEC PWR   =   1462.    

      CONVERGENCE BLOCK $OLVER02  METHOD: SECANT                                  TIME =     97.05
      ITER   0 For Specs:        D-H2

      UOS BLOCK M100     MODEL: MIXER                                             TIME =     97.05
      NO. TEMP ITER =    4     TEMP =  330.225    
      KODE = 1  NTRIAL =   6  T = 330.2253  P = 7.500000E+06  V =  1.00000      Q =  0.00000    

      UOS BLOCK HX100    MODEL: HEATX                                             TIME =     97.05
      SPECIFICATION: COLD OUTLET TEMP      483.15    
      FLOW TYPE:     COUNTERCURRENT  
      HOT:  TIN=  580.24  PIN=0.75000E+07   TOUT=  365.16  POUT=0.75000E+07
      COLD: TIN=  330.23  PIN=0.75000E+07   TOUT=  483.15  POUT=0.75000E+07
                              DUTY=0.14279E+08

      UOS BLOCK E110     MODEL: HEATER                                            TIME =     97.05
      KODE = 2  NTRIAL =   5  T = 508.1500  P = 7.500000E+06  V =  1.00000      Q = 2.366975E+06

      CONVERGENCE BLOCK $OLVER02  METHOD: SECANT                                  TIME =     97.05
      ITER   1 For Specs:        D-H2
      SPEC   1 ERROR = -0.23314E-01                          X =  0.41081    

  LOOP $OLVER02 ITER    1:     *** CONVERGED *** , MAX ERR/TOL    -0.23314        TIME =     97.05

      UOS BLOCK R100     MODEL: RPLUG                                             TIME =     97.05
        AT REACTOR EXIT :
        LENGTH =   5.0000      DIAMETER =   1.6000      RESIDENCE TIME =   2.9968    
        PROCESS STREAM T =    568.94     P =   0.75000E+07 H =  -0.26259E+09 V =    1.0000    
        MIN T =   508.150     AT Z/LENGTH =   0.00000     MAX T =   568.938     AT Z/LENGTH =  0.800000    

      UOS BLOCK S100     MODEL: FSPLIT                                            TIME =     97.06
      NO. TEMP ITER =    5     TEMP =  568.936    
      KODE = 1  NTRIAL =   6  T = 568.9362  P = 7.500000E+06  V =  1.00000      Q =  0.00000    
      SPLIT FRACTIONS:  0.60000D+00    0.40000D+00

      UOS BLOCK HX220    MODEL: HEATX                                             TIME =     97.06
      SPECIFICATION: COLD OUTLET TEMP      481.15    
      FLOW TYPE:     COUNTERCURRENT  
      HOT:  TIN=  568.94  PIN=0.75000E+07   TOUT=  415.06  POUT=0.75000E+07
      COLD: TIN=  372.09  PIN=0.13900E+06   TOUT=  481.15  POUT=0.13900E+06
                              DUTY=0.56333E+07

      UOS BLOCK HX150    MODEL: HEATX                                             TIME =     97.06
      SPECIFICATION: COLD OUTLET TEMP      356.15    
      FLOW TYPE:     COUNTERCURRENT  
      HOT:  TIN=  415.06  PIN=0.75000E+07   TOUT=  400.91  POUT=0.75000E+07
      COLD: TIN=  301.19  PIN=0.30000E+06   TOUT=  356.15  POUT=0.30000E+06
                              DUTY=0.99665E+06

      UOS BLOCK M101     MODEL: MIXER                                             TIME =     97.06
      KODE = 1  NTRIAL =   5  T = 381.0521  P = 7.500000E+06  V = 0.960776      Q =  0.00000    

      UOS BLOCK E220     MODEL: HEATER                                            TIME =     97.06
      KODE = 2  NTRIAL =   3  T = 553.1500  P =  139000.      V =  1.00000      Q =  348421.    

      UOS BLOCK D200     MODEL: RADFRAC                                           TIME =     97.06

       Convergence iterations:
         OL   ML   IL     Err/Tol
          1    1    9      46.878    
          2    1    4      4.7641    
          3    1    4     0.42212    

      UOS BLOCK S220     MODEL: FSPLIT                                            TIME =     97.06
      SPLIT FRACTIONS:  0.48500D+00    0.51500D+00

      CONVERGENCE BLOCK $OLVER01  METHOD: WEGSTEIN                                TIME =     97.06
      ITER   5 For Tear Streams: 115       120       221

      --FLASH TEAR STREAM 115     
      NO. TEMP ITER =    5     TEMP =  568.935    
      KODE = 1  NTRIAL =   6  T = 568.9347  P = 7.500000E+06  V =  1.00000      Q =  0.00000    

      --FLASH TEAR STREAM 120     
      KODE = 1  NTRIAL =   5  T = 374.4153  P = 7.500000E+06  V = 0.953243      Q =  0.00000    

      --FLASH TEAR STREAM 221     
      NO. TEMP ITER =    4     TEMP =  365.268    
      KODE = 1  NTRIAL =   2  T = 365.2684  P =  139000.      V =  0.00000      Q =  0.00000    

  LOOP $OLVER01 ITER    5:  22 VARS NOT CONVERGED, MAX ERR/TOL      33200.        TIME =     97.06

      UOS BLOCK E120     MODEL: HEATER                                            TIME =     97.06
      KODE = 2  NTRIAL =   4  T = 308.1500  P = 7.500000E+06  V = 0.915165      Q =-9.574133E+06

      UOS BLOCK V120     MODEL: FLASH2                                            TIME =     97.06
      KODE = 1  NTRIAL =   6  T = 308.1500  P = 7.500000E+06  V = 0.915165      Q =  0.00000    

      UOS BLOCK S130     MODEL: FSPLIT                                            TIME =     97.06
      SPLIT FRACTIONS:  0.99000D+00    0.10000D-01

      UOS BLOCK VLV140   MODEL: VALVE                                             TIME =     97.06
      KODE = 1  NTRIAL =   9  T = 301.3536  P =  100000.      V = 4.177168E-02  Q =  0.00000    
      OUTLET PRES =   0.1000E+06 PRES DROP =   0.7400E+07

      UOS BLOCK V140     MODEL: FLASH2                                            TIME =     97.10
      KODE = 1  NTRIAL =   6  T = 301.3536  P =  100000.      V = 4.177168E-02  Q =  0.00000    

      UOS BLOCK SEP150   MODEL: SEP                                               TIME =     97.10
      ---FLASH OUTLET STREAM VENT2   :
      KODE = 2   NO. TEMP ITER =    1     TEMP =  301.354    
      KPHASE =    1 KODE =    2 T =  301.354     P =  100000.     Q =  0.00000    
      ---FLASH OUTLET STREAM 151     :
      KODE = 2  NTRIAL =   3  T = 301.3536  P =  100000.      V =  0.00000      Q =  0.00000    

      UOS BLOCK P150     MODEL: PUMP                                              TIME =     97.10
      VOL-FLOW   =  0.6140E-02 , DELTA P    =  0.2000E+06 , PUMP EFF   =  0.8000    
      FLUID PWR  =   1228.     , BRAKE PWR  =   1535.     , ELEC PWR   =   1535.    

      CONVERGENCE BLOCK $OLVER02  METHOD: SECANT                                  TIME =     97.10
      ITER   0 For Specs:        D-H2

      UOS BLOCK M100     MODEL: MIXER                                             TIME =     97.10
      NO. TEMP ITER =    4     TEMP =  329.880    
      KODE = 1  NTRIAL =   6  T = 329.8797  P = 7.500000E+06  V =  1.00000      Q =  0.00000    

      UOS BLOCK HX100    MODEL: HEATX                                             TIME =     97.10
      SPECIFICATION: COLD OUTLET TEMP      483.15    
      FLOW TYPE:     COUNTERCURRENT  
      HOT:  TIN=  568.93  PIN=0.75000E+07   TOUT=  362.99  POUT=0.75000E+07
      COLD: TIN=  329.88  PIN=0.75000E+07   TOUT=  483.15  POUT=0.75000E+07
                              DUTY=0.14547E+08

      UOS BLOCK E110     MODEL: HEATER                                            TIME =     97.11
      KODE = 2  NTRIAL =   5  T = 508.1500  P = 7.500000E+06  V =  1.00000      Q = 2.405127E+06

      CONVERGENCE BLOCK $OLVER02  METHOD: SECANT                                  TIME =     97.11
      ITER   1 For Specs:        D-H2
      SPEC   1 ERROR =  0.21224     OLD X =  0.41081     NEW X =  0.19671    

  LOOP $OLVER02 ITER    1:   1 VARS NOT CONVERGED, MAX ERR/TOL      2.1224        TIME =     97.11

      UOS BLOCK C300     MODEL: COMPR                                             TIME =     97.11
      OUTLET TEMP =   436.9       OUTLET PRES =  0.2740E+07   INDICATED HP =  0.7993E+06   BRAKE HP =  0.7993E+06
      ISENTR TEMP =   398.1      CALC ISENTR EFF =  0.7200      ISENTR HP =  0.5755E+06  HP =  0.1572E+06

      UOS BLOCK E300     MODEL: HEATER                                            TIME =     97.11
      KODE = 2  NTRIAL =   1  T = 308.1500  P = 2.740000E+06  V =  1.00000      Q = -738877.    

      UOS BLOCK C301     MODEL: COMPR                                             TIME =     97.11
      OUTLET TEMP =   451.8       OUTLET PRES =  0.7500E+07   INDICATED HP =  0.8380E+06   BRAKE HP =  0.8380E+06
      ISENTR TEMP =   411.2      CALC ISENTR EFF =  0.7200      ISENTR HP =  0.6034E+06  HP =  0.1648E+06

      UOS BLOCK M100     MODEL: MIXER                                             TIME =     97.11
      NO. TEMP ITER =    4     TEMP =  321.471    
      KODE = 1  NTRIAL =   6  T = 321.4706  P = 7.500000E+06  V =  1.00000      Q =  0.00000    

      UOS BLOCK HX100    MODEL: HEATX                                             TIME =     97.11
      SPECIFICATION: COLD OUTLET TEMP      483.15    
      FLOW TYPE:     COUNTERCURRENT  
      HOT:  TIN=  568.93  PIN=0.75000E+07   TOUT=  365.02  POUT=0.75000E+07
      COLD: TIN=  321.47  PIN=0.75000E+07   TOUT=  483.15  POUT=0.75000E+07
                              DUTY=0.14336E+08

      UOS BLOCK E110     MODEL: HEATER                                            TIME =     97.11
      KODE = 2  NTRIAL =   5  T = 508.1500  P = 7.500000E+06  V =  1.00000      Q = 2.248897E+06

      CONVERGENCE BLOCK $OLVER02  METHOD: SECANT                                  TIME =     97.11
      ITER   2 For Specs:        D-H2
      SPEC   1 ERROR = -0.12322     OLD X =  0.19671     NEW X =  0.27536    

  LOOP $OLVER02 ITER    2:   1 VARS NOT CONVERGED, MAX ERR/TOL     -1.2322        TIME =     97.11

      UOS BLOCK C300     MODEL: COMPR                                             TIME =     97.11
      OUTLET TEMP =   436.9       OUTLET PRES =  0.2740E+07   INDICATED HP =  0.1119E+07   BRAKE HP =  0.1119E+07
      ISENTR TEMP =   398.1      CALC ISENTR EFF =  0.7200      ISENTR HP =  0.8056E+06  HP =  0.3081E+06

      UOS BLOCK E300     MODEL: HEATER                                            TIME =     97.11
      KODE = 2  NTRIAL =   1  T = 308.1500  P = 2.740000E+06  V =  1.00000      Q =-1.034283E+06

      UOS BLOCK C301     MODEL: COMPR                                             TIME =     97.11
      OUTLET TEMP =   451.8       OUTLET PRES =  0.7500E+07   INDICATED HP =  0.1173E+07   BRAKE HP =  0.1173E+07
      ISENTR TEMP =   411.2      CALC ISENTR EFF =  0.7200      ISENTR HP =  0.8446E+06  HP =  0.3230E+06

      UOS BLOCK M100     MODEL: MIXER                                             TIME =     97.11
      NO. TEMP ITER =    4     TEMP =  324.686    
      KODE = 1  NTRIAL =   6  T = 324.6863  P = 7.500000E+06  V =  1.00000      Q =  0.00000    

      UOS BLOCK HX100    MODEL: HEATX                                             TIME =     97.11
      SPECIFICATION: COLD OUTLET TEMP      483.15    
      FLOW TYPE:     COUNTERCURRENT  
      HOT:  TIN=  568.93  PIN=0.75000E+07   TOUT=  364.27  POUT=0.75000E+07
      COLD: TIN=  324.69  PIN=0.75000E+07   TOUT=  483.15  POUT=0.75000E+07
                              DUTY=0.14414E+08

      UOS BLOCK E110     MODEL: HEATER                                            TIME =     97.11
      KODE = 2  NTRIAL =   5  T = 508.1500  P = 7.500000E+06  V =  1.00000      Q = 2.306263E+06

      CONVERGENCE BLOCK $OLVER02  METHOD: SECANT                                  TIME =     97.11
      ITER   3 For Specs:        D-H2
      SPEC   1 ERROR =   0.0000                              X =  0.27536    

  LOOP $OLVER02 ITER    3:     *** CONVERGED *** , MAX ERR/TOL      0.0000        TIME =     97.11

      UOS BLOCK R100     MODEL: RPLUG                                             TIME =     97.11
        AT REACTOR EXIT :
        LENGTH =   5.0000      DIAMETER =   1.6000      RESIDENCE TIME =   3.0631    
        PROCESS STREAM T =    570.32     P =   0.75000E+07 H =  -0.25484E+09 V =    1.0000    
        MIN T =   508.150     AT Z/LENGTH =   0.00000     MAX T =   570.325     AT Z/LENGTH =  0.854670    

      UOS BLOCK S100     MODEL: FSPLIT                                            TIME =     97.11
      NO. TEMP ITER =    5     TEMP =  570.319    
      KODE = 1  NTRIAL =   6  T = 570.3194  P = 7.500000E+06  V =  1.00000      Q =  0.00000    
      SPLIT FRACTIONS:  0.60000D+00    0.40000D+00

      UOS BLOCK HX220    MODEL: HEATX                                             TIME =     97.11
      SPECIFICATION: COLD OUTLET TEMP      481.15    
      FLOW TYPE:     COUNTERCURRENT  
      HOT:  TIN=  570.32  PIN=0.75000E+07   TOUT=  410.92  POUT=0.75000E+07
      COLD: TIN=  365.27  PIN=0.13900E+06   TOUT=  481.15  POUT=0.13900E+06
                              DUTY=0.56867E+07

      UOS BLOCK HX150    MODEL: HEATX                                             TIME =     97.11
      SPECIFICATION: COLD OUTLET TEMP      356.15    
      FLOW TYPE:     COUNTERCURRENT  
      HOT:  TIN=  410.92  PIN=0.75000E+07   TOUT=  397.73  POUT=0.75000E+07
      COLD: TIN=  301.39  PIN=0.30000E+06   TOUT=  356.15  POUT=0.30000E+06
                              DUTY=0.10374E+07

      UOS BLOCK M101     MODEL: MIXER                                             TIME =     97.11
      KODE = 1  NTRIAL =   5  T = 378.5502  P = 7.500000E+06  V = 0.957549      Q =  0.00000    

      UOS BLOCK E220     MODEL: HEATER                                            TIME =     97.13
      KODE = 2  NTRIAL =   3  T = 553.1500  P =  139000.      V =  1.00000      Q =  354533.    

      UOS BLOCK D200     MODEL: RADFRAC                                           TIME =     97.13

       Convergence iterations:
         OL   ML   IL     Err/Tol
          1    1    9      34.967    
          2    1    4      3.0141    
          3    1    4     0.27365    

      UOS BLOCK S220     MODEL: FSPLIT                                            TIME =     97.13
      SPLIT FRACTIONS:  0.48500D+00    0.51500D+00

      CONVERGENCE BLOCK $OLVER01  METHOD: WEGSTEIN                                TIME =     97.13
      ITER   6 For Tear Streams: 115       120       221

      --FLASH TEAR STREAM 115     
      NO. TEMP ITER =    5     TEMP =  570.208    
      KODE = 1  NTRIAL =   6  T = 570.2075  P = 7.500000E+06  V =  1.00000      Q =  0.00000    

      --FLASH TEAR STREAM 120     
      KODE = 1  NTRIAL =   5  T = 386.8448  P = 7.500000E+06  V = 0.962971      Q =  0.00000    

      --FLASH TEAR STREAM 221     
      KODE = 1  NTRIAL =   7  T = 367.6400  P =  139000.      V = 1.739576E-03  Q =  0.00000    

  LOOP $OLVER01 ITER    6:  21 VARS NOT CONVERGED, MAX ERR/TOL      34901.        TIME =     97.13

      UOS BLOCK E120     MODEL: HEATER                                            TIME =     97.13
      KODE = 2  NTRIAL =   4  T = 308.1500  P = 7.500000E+06  V = 0.911383      Q =-1.200400E+07

      UOS BLOCK V120     MODEL: FLASH2                                            TIME =     97.13
      KODE = 1  NTRIAL =   6  T = 308.1500  P = 7.500000E+06  V = 0.911383      Q =  0.00000    

      UOS BLOCK S130     MODEL: FSPLIT                                            TIME =     97.13
      SPLIT FRACTIONS:  0.99000D+00    0.10000D-01

      UOS BLOCK VLV140   MODEL: VALVE                                             TIME =     97.13
      KODE = 1  NTRIAL =   9  T = 301.5596  P =  100000.      V = 4.068436E-02  Q =  0.00000    
      OUTLET PRES =   0.1000E+06 PRES DROP =   0.7400E+07

      UOS BLOCK V140     MODEL: FLASH2                                            TIME =     97.13
      KODE = 1  NTRIAL =   6  T = 301.5596  P =  100000.      V = 4.068436E-02  Q =  0.00000    

      UOS BLOCK SEP150   MODEL: SEP                                               TIME =     97.13
      ---FLASH OUTLET STREAM VENT2   :
      KODE = 2   NO. TEMP ITER =    1     TEMP =  301.560    
      KPHASE =    1 KODE =    2 T =  301.560     P =  100000.     Q =  0.00000    
      ---FLASH OUTLET STREAM 151     :
      KODE = 2  NTRIAL =   3  T = 301.5596  P =  100000.      V =  0.00000      Q =  0.00000    

      UOS BLOCK P150     MODEL: PUMP                                              TIME =     97.13
      VOL-FLOW   =  0.6272E-02 , DELTA P    =  0.2000E+06 , PUMP EFF   =  0.8000    
      FLUID PWR  =   1254.     , BRAKE PWR  =   1568.     , ELEC PWR   =   1568.    

      CONVERGENCE BLOCK $OLVER02  METHOD: SECANT                                  TIME =     97.13
      ITER   0 For Specs:        D-H2

      UOS BLOCK M100     MODEL: MIXER                                             TIME =     97.13
      NO. TEMP ITER =    4     TEMP =  324.670    
      KODE = 1  NTRIAL =   6  T = 324.6703  P = 7.500000E+06  V =  1.00000      Q =  0.00000    

      UOS BLOCK HX100    MODEL: HEATX                                             TIME =     97.13
      SPECIFICATION: COLD OUTLET TEMP      483.15    
      FLOW TYPE:     COUNTERCURRENT  
      HOT:  TIN=  570.21  PIN=0.75000E+07   TOUT=  360.02  POUT=0.75000E+07
      COLD: TIN=  324.67  PIN=0.75000E+07   TOUT=  483.15  POUT=0.75000E+07
                              DUTY=0.14433E+08

      UOS BLOCK E110     MODEL: HEATER                                            TIME =     97.13
      KODE = 2  NTRIAL =   5  T = 508.1500  P = 7.500000E+06  V =  1.00000      Q = 2.309414E+06

      CONVERGENCE BLOCK $OLVER02  METHOD: SECANT                                  TIME =     97.13
      ITER   1 For Specs:        D-H2
      SPEC   1 ERROR = -0.12185     OLD X =  0.27536     NEW X =  0.35313    

  LOOP $OLVER02 ITER    1:   1 VARS NOT CONVERGED, MAX ERR/TOL     -1.2185        TIME =     97.13

      UOS BLOCK C300     MODEL: COMPR                                             TIME =     97.13
      OUTLET TEMP =   436.9       OUTLET PRES =  0.2740E+07   INDICATED HP =  0.1435E+07   BRAKE HP =  0.1435E+07
      ISENTR TEMP =   398.1      CALC ISENTR EFF =  0.7200      ISENTR HP =  0.1033E+07  HP =  0.5067E+06

      UOS BLOCK E300     MODEL: HEATER                                            TIME =     97.13
      KODE = 2  NTRIAL =   1  T = 308.1500  P = 2.740000E+06  V =  1.00000      Q =-1.326401E+06

      UOS BLOCK C301     MODEL: COMPR                                             TIME =     97.13
      OUTLET TEMP =   451.8       OUTLET PRES =  0.7500E+07   INDICATED HP =  0.1504E+07   BRAKE HP =  0.1504E+07
      ISENTR TEMP =   411.2      CALC ISENTR EFF =  0.7200      ISENTR HP =  0.1083E+07  HP =  0.5312E+06

      UOS BLOCK M100     MODEL: MIXER                                             TIME =     97.13
      NO. TEMP ITER =    4     TEMP =  327.693    
      KODE = 1  NTRIAL =   6  T = 327.6934  P = 7.500000E+06  V =  1.00000      Q =  0.00000    

      UOS BLOCK HX100    MODEL: HEATX                                             TIME =     97.13
      SPECIFICATION: COLD OUTLET TEMP      483.15    
      FLOW TYPE:     COUNTERCURRENT  
      HOT:  TIN=  570.21  PIN=0.75000E+07   TOUT=  359.23  POUT=0.75000E+07
      COLD: TIN=  327.69  PIN=0.75000E+07   TOUT=  483.15  POUT=0.75000E+07
                              DUTY=0.14510E+08

      UOS BLOCK E110     MODEL: HEATER                                            TIME =     97.13
      KODE = 2  NTRIAL =   5  T = 508.1500  P = 7.500000E+06  V =  1.00000      Q = 2.366144E+06

      CONVERGENCE BLOCK $OLVER02  METHOD: SECANT                                  TIME =     97.13
      ITER   2 For Specs:        D-H2
      SPEC   1 ERROR = -0.33506E-02                          X =  0.35313    

  LOOP $OLVER02 ITER    2:     *** CONVERGED *** , MAX ERR/TOL    -0.33506E-01    TIME =     97.13

      UOS BLOCK R100     MODEL: RPLUG                                             TIME =     97.14
        AT REACTOR EXIT :
        LENGTH =   5.0000      DIAMETER =   1.6000      RESIDENCE TIME =   2.9877    
        PROCESS STREAM T =    570.10     P =   0.75000E+07 H =  -0.26160E+09 V =    1.0000    
        MIN T =   508.150     AT Z/LENGTH =   0.00000     MAX T =   570.106     AT Z/LENGTH =  0.800000    

      UOS BLOCK S100     MODEL: FSPLIT                                            TIME =     97.14
      NO. TEMP ITER =    5     TEMP =  570.104    
      KODE = 1  NTRIAL =   6  T = 570.1043  P = 7.500000E+06  V =  1.00000      Q =  0.00000    
      SPLIT FRACTIONS:  0.60000D+00    0.40000D+00

      UOS BLOCK HX220    MODEL: HEATX                                             TIME =     97.14
      SPECIFICATION: COLD OUTLET TEMP      481.15    
      FLOW TYPE:     COUNTERCURRENT  
      HOT:  TIN=  570.10  PIN=0.75000E+07   TOUT=  408.86  POUT=0.75000E+07
      COLD: TIN=  367.64  PIN=0.13900E+06   TOUT=  481.15  POUT=0.13900E+06
                              DUTY=0.59001E+07

      UOS BLOCK HX150    MODEL: HEATX                                             TIME =     97.14
      SPECIFICATION: COLD OUTLET TEMP      356.15    
      FLOW TYPE:     COUNTERCURRENT  
      HOT:  TIN=  408.86  PIN=0.75000E+07   TOUT=  397.04  POUT=0.75000E+07
      COLD: TIN=  301.60  PIN=0.30000E+06   TOUT=  356.15  POUT=0.30000E+06
                              DUTY=0.10715E+07

      UOS BLOCK M101     MODEL: MIXER                                             TIME =     97.14
      KODE = 1  NTRIAL =   5  T = 375.9905  P = 7.500000E+06  V = 0.955773      Q =  0.00000    

      UOS BLOCK E220     MODEL: HEATER                                            TIME =     97.14
      KODE = 2  NTRIAL =   3  T = 553.1500  P =  139000.      V =  1.00000      Q =  379499.    

      UOS BLOCK D200     MODEL: RADFRAC                                           TIME =     97.14

       Convergence iterations:
         OL   ML   IL     Err/Tol
          1    1    9      31.099    
          2    1    4      7.8344    
          3    1    3     0.79697    

      UOS BLOCK S220     MODEL: FSPLIT                                            TIME =     97.14
      SPLIT FRACTIONS:  0.48500D+00    0.51500D+00

      CONVERGENCE BLOCK $OLVER01  METHOD: WEGSTEIN                                TIME =     97.14
      ITER   7 For Tear Streams: 115       120       221

      --FLASH TEAR STREAM 115     
      NO. TEMP ITER =    5     TEMP =  567.356    
      KODE = 1  NTRIAL =   6  T = 567.3563  P = 7.500000E+06  V =  1.00000      Q =  0.00000    

      --FLASH TEAR STREAM 120     
      KODE = 1  NTRIAL =   5  T = 376.0936  P = 7.500000E+06  V = 0.955863      Q =  0.00000    

      --FLASH TEAR STREAM 221     
      KODE = 1  NTRIAL =   3  T = 368.2371  P =  139000.      V = 1.630263E-06  Q =  0.00000    

  LOOP $OLVER01 ITER    7:  22 VARS NOT CONVERGED, MAX ERR/TOL     -10540.        TIME =     97.14

      UOS BLOCK E120     MODEL: HEATER                                            TIME =     97.14
      KODE = 2  NTRIAL =   4  T = 308.1500  P = 7.500000E+06  V = 0.916043      Q =-9.840486E+06

      UOS BLOCK V120     MODEL: FLASH2                                            TIME =     97.14
      KODE = 1  NTRIAL =   6  T = 308.1500  P = 7.500000E+06  V = 0.916043      Q =  0.00000    

      UOS BLOCK S130     MODEL: FSPLIT                                            TIME =     97.14
      SPLIT FRACTIONS:  0.99000D+00    0.10000D-01

      UOS BLOCK VLV140   MODEL: VALVE                                             TIME =     97.14
      KODE = 1  NTRIAL =   9  T = 301.1854  P =  100000.      V = 4.265436E-02  Q =  0.00000    
      OUTLET PRES =   0.1000E+06 PRES DROP =   0.7400E+07

      UOS BLOCK V140     MODEL: FLASH2                                            TIME =     97.14
      KODE = 1  NTRIAL =   6  T = 301.1854  P =  100000.      V = 4.265436E-02  Q =  0.00000    

      UOS BLOCK SEP150   MODEL: SEP                                               TIME =     97.15
      ---FLASH OUTLET STREAM VENT2   :
      KODE = 2   NO. TEMP ITER =    1     TEMP =  301.185    
      KPHASE =    1 KODE =    2 T =  301.185     P =  100000.     Q =  0.00000    
      ---FLASH OUTLET STREAM 151     :
      KODE = 2  NTRIAL =   3  T = 301.1854  P =  100000.      V =  0.00000      Q =  0.00000    

      UOS BLOCK P150     MODEL: PUMP                                              TIME =     97.15
      VOL-FLOW   =  0.6015E-02 , DELTA P    =  0.2000E+06 , PUMP EFF   =  0.8000    
      FLUID PWR  =   1203.     , BRAKE PWR  =   1504.     , ELEC PWR   =   1504.    

      CONVERGENCE BLOCK $OLVER02  METHOD: SECANT                                  TIME =     97.15
      ITER   0 For Specs:        D-H2

      UOS BLOCK M100     MODEL: MIXER                                             TIME =     97.15
      NO. TEMP ITER =    4     TEMP =  327.722    
      KODE = 1  NTRIAL =   6  T = 327.7224  P = 7.500000E+06  V =  1.00000      Q =  0.00000    

      UOS BLOCK HX100    MODEL: HEATX                                             TIME =     97.15
      SPECIFICATION: COLD OUTLET TEMP      483.15    
      FLOW TYPE:     COUNTERCURRENT  
      HOT:  TIN=  567.36  PIN=0.75000E+07   TOUT=  361.95  POUT=0.75000E+07
      COLD: TIN=  327.72  PIN=0.75000E+07   TOUT=  483.15  POUT=0.75000E+07
                              DUTY=0.14485E+08

      UOS BLOCK E110     MODEL: HEATER                                            TIME =     97.15
      KODE = 2  NTRIAL =   5  T = 508.1500  P = 7.500000E+06  V =  1.00000      Q = 2.362407E+06

      CONVERGENCE BLOCK $OLVER02  METHOD: SECANT                                  TIME =     97.15
      ITER   1 For Specs:        D-H2
      SPEC   1 ERROR =  0.10967E-01                          X =  0.35313    

  LOOP $OLVER02 ITER    1:     *** CONVERGED *** , MAX ERR/TOL     0.10967        TIME =     97.15

      UOS BLOCK R100     MODEL: RPLUG                                             TIME =     97.15
        AT REACTOR EXIT :
        LENGTH =   5.0000      DIAMETER =   1.6000      RESIDENCE TIME =   2.9882    
        PROCESS STREAM T =    570.52     P =   0.75000E+07 H =  -0.26047E+09 V =    1.0000    
        MIN T =   508.150     AT Z/LENGTH =   0.00000     MAX T =   570.524     AT Z/LENGTH =  0.870370    

      UOS BLOCK S100     MODEL: FSPLIT                                            TIME =     97.15
      NO. TEMP ITER =    5     TEMP =  570.518    
      KODE = 1  NTRIAL =   6  T = 570.5178  P = 7.500000E+06  V =  1.00000      Q =  0.00000    
      SPLIT FRACTIONS:  0.60000D+00    0.40000D+00

      UOS BLOCK HX220    MODEL: HEATX                                             TIME =     97.15
      SPECIFICATION: COLD OUTLET TEMP      481.15    
      FLOW TYPE:     COUNTERCURRENT  
      HOT:  TIN=  570.52  PIN=0.75000E+07   TOUT=  405.13  POUT=0.75000E+07
      COLD: TIN=  368.24  PIN=0.13900E+06   TOUT=  481.15  POUT=0.13900E+06
                              DUTY=0.61858E+07

      UOS BLOCK HX150    MODEL: HEATX                                             TIME =     97.15
      SPECIFICATION: COLD OUTLET TEMP      356.15    
      FLOW TYPE:     COUNTERCURRENT  
      HOT:  TIN=  405.13  PIN=0.75000E+07   TOUT=  394.19  POUT=0.75000E+07
      COLD: TIN=  301.22  PIN=0.30000E+06   TOUT=  356.15  POUT=0.30000E+06
                              DUTY=0.10219E+07

      UOS BLOCK M101     MODEL: MIXER                                             TIME =     97.15
      KODE = 1  NTRIAL =   3  T = 375.8490  P = 7.500000E+06  V = 0.955657      Q =  0.00000    

      UOS BLOCK E220     MODEL: HEATER                                            TIME =     97.15
      KODE = 2  NTRIAL =   3  T = 553.1500  P =  139000.      V =  1.00000      Q =  394621.    

      UOS BLOCK D200     MODEL: RADFRAC                                           TIME =     97.15

       Convergence iterations:
         OL   ML   IL     Err/Tol
          1    1   10      30.633    
          2    1    4      5.3475    
          3    1    3     0.58208    

      UOS BLOCK S220     MODEL: FSPLIT                                            TIME =     97.15
      SPLIT FRACTIONS:  0.48500D+00    0.51500D+00

      CONVERGENCE BLOCK $OLVER01  METHOD: WEGSTEIN                                TIME =     97.15
      ITER   8 For Tear Streams: 115       120       221

      --FLASH TEAR STREAM 115     
      NO. TEMP ITER =    5     TEMP =  570.653    
      KODE = 1  NTRIAL =   6  T = 570.6526  P = 7.500000E+06  V =  1.00000      Q =  0.00000    

      --FLASH TEAR STREAM 120     
      KODE = 1  NTRIAL =   4  T = 376.1186  P = 7.500000E+06  V = 0.955953      Q =  0.00000    

      --FLASH TEAR STREAM 221     
      KODE = 1  NTRIAL =   4  T = 369.1317  P =  139000.      V = 1.592092E-06  Q =  0.00000    

  LOOP $OLVER01 ITER    8:  22 VARS NOT CONVERGED, MAX ERR/TOL     -13536.        TIME =     97.15

      UOS BLOCK E120     MODEL: HEATER                                            TIME =     97.16
      KODE = 2  NTRIAL =   3  T = 308.1500  P = 7.500000E+06  V = 0.916133      Q =-9.998457E+06

      UOS BLOCK V120     MODEL: FLASH2                                            TIME =     97.16
      KODE = 1  NTRIAL =   4  T = 308.1500  P = 7.500000E+06  V = 0.916133      Q =  0.00000    

      UOS BLOCK S130     MODEL: FSPLIT                                            TIME =     97.16
      SPLIT FRACTIONS:  0.99000D+00    0.10000D-01

      UOS BLOCK VLV140   MODEL: VALVE                                             TIME =     97.16
      KODE = 1  NTRIAL =   9  T = 301.1879  P =  100000.      V = 4.266684E-02  Q =  0.00000    
      OUTLET PRES =   0.1000E+06 PRES DROP =   0.7400E+07

      UOS BLOCK V140     MODEL: FLASH2                                            TIME =     97.16
      KODE = 1  NTRIAL =   5  T = 301.1879  P =  100000.      V = 4.266684E-02  Q =  0.00000    

      UOS BLOCK SEP150   MODEL: SEP                                               TIME =     97.16
      ---FLASH OUTLET STREAM VENT2   :
      KODE = 2   NO. TEMP ITER =    1     TEMP =  301.188    
      KPHASE =    1 KODE =    2 T =  301.188     P =  100000.     Q =  0.00000    
      ---FLASH OUTLET STREAM 151     :
      KODE = 2  NTRIAL =   3  T = 301.1879  P =  100000.      V =  0.00000      Q =  0.00000    

      UOS BLOCK P150     MODEL: PUMP                                              TIME =     97.16
      VOL-FLOW   =  0.6103E-02 , DELTA P    =  0.2000E+06 , PUMP EFF   =  0.8000    
      FLUID PWR  =   1221.     , BRAKE PWR  =   1526.     , ELEC PWR   =   1526.    

      CONVERGENCE BLOCK $OLVER02  METHOD: SECANT                                  TIME =     97.16
      ITER   0 For Specs:        D-H2

      UOS BLOCK M100     MODEL: MIXER                                             TIME =     97.16
      NO. TEMP ITER =    4     TEMP =  327.468    
      KODE = 1  NTRIAL =   6  T = 327.4682  P = 7.500000E+06  V =  1.00000      Q =  0.00000    

      UOS BLOCK HX100    MODEL: HEATX                                             TIME =     97.16
      SPECIFICATION: COLD OUTLET TEMP      483.15    
      FLOW TYPE:     COUNTERCURRENT  
      HOT:  TIN=  570.65  PIN=0.75000E+07   TOUT=  361.00  POUT=0.75000E+07
      COLD: TIN=  327.47  PIN=0.75000E+07   TOUT=  483.15  POUT=0.75000E+07
                              DUTY=0.14699E+08

      UOS BLOCK E110     MODEL: HEATER                                            TIME =     97.16
      KODE = 2  NTRIAL =   5  T = 508.1500  P = 7.500000E+06  V =  1.00000      Q = 2.393404E+06

      CONVERGENCE BLOCK $OLVER02  METHOD: SECANT                                  TIME =     97.16
      ITER   1 For Specs:        D-H2
      SPEC   1 ERROR =  0.16862E-01                          X =  0.35313    

  LOOP $OLVER02 ITER    1:     *** CONVERGED *** , MAX ERR/TOL     0.16862        TIME =     97.16

      UOS BLOCK R100     MODEL: RPLUG                                             TIME =     97.16
        AT REACTOR EXIT :
        LENGTH =   5.0000      DIAMETER =   1.6000      RESIDENCE TIME =   2.9477    
        PROCESS STREAM T =    570.72     P =   0.75000E+07 H =  -0.26361E+09 V =    1.0000    
        MIN T =   508.150     AT Z/LENGTH =   0.00000     MAX T =   570.724     AT Z/LENGTH =  0.800820    

      UOS BLOCK S100     MODEL: FSPLIT                                            TIME =     97.16
      NO. TEMP ITER =    5     TEMP =  570.722    
      KODE = 1  NTRIAL =   6  T = 570.7216  P = 7.500000E+06  V =  1.00000      Q =  0.00000    
      SPLIT FRACTIONS:  0.60000D+00    0.40000D+00

      UOS BLOCK HX220    MODEL: HEATX                                             TIME =     97.16
      SPECIFICATION: COLD OUTLET TEMP      481.15    
      FLOW TYPE:     COUNTERCURRENT  
      HOT:  TIN=  570.72  PIN=0.75000E+07   TOUT=  410.36  POUT=0.75000E+07
      COLD: TIN=  369.13  PIN=0.13900E+06   TOUT=  481.15  POUT=0.13900E+06
                              DUTY=0.59372E+07

      UOS BLOCK HX150    MODEL: HEATX                                             TIME =     97.16
      SPECIFICATION: COLD OUTLET TEMP      356.15    
      FLOW TYPE:     COUNTERCURRENT  
      HOT:  TIN=  410.36  PIN=0.75000E+07   TOUT=  397.76  POUT=0.75000E+07
      COLD: TIN=  301.23  PIN=0.30000E+06   TOUT=  356.15  POUT=0.30000E+06
                              DUTY=0.10369E+07

      UOS BLOCK M101     MODEL: MIXER                                             TIME =     97.16
      KODE = 1  NTRIAL =   4  T = 377.1480  P = 7.500000E+06  V = 0.957534      Q =  0.00000    

      UOS BLOCK E220     MODEL: HEATER                                            TIME =     97.16
      KODE = 2  NTRIAL =   3  T = 553.1500  P =  139000.      V =  1.00000      Q =  375427.    

      UOS BLOCK D200     MODEL: RADFRAC                                           TIME =     97.16

       Convergence iterations:
         OL   ML   IL     Err/Tol
          1    1    8      14.841    
          2    1    3      1.0397    
          3    1    4     0.12228    

      UOS BLOCK S220     MODEL: FSPLIT                                            TIME =     97.17
      SPLIT FRACTIONS:  0.48500D+00    0.51500D+00

      CONVERGENCE BLOCK $OLVER01  METHOD: WEGSTEIN                                TIME =     97.17
      ITER   9 For Tear Streams: 115       120       221

      --FLASH TEAR STREAM 115     
      NO. TEMP ITER =    5     TEMP =  572.221    
      KODE = 1  NTRIAL =   6  T = 572.2206  P = 7.500000E+06  V =  1.00000      Q =  0.00000    

      --FLASH TEAR STREAM 120     
      KODE = 1  NTRIAL =   4  T = 376.4790  P = 7.500000E+06  V = 0.956851      Q =  0.00000    

      --FLASH TEAR STREAM 221     
      NO. TEMP ITER =    4     TEMP =  367.853    
      KODE = 1  NTRIAL =   2  T = 367.8528  P =  139000.      V =  0.00000      Q =  0.00000    

  LOOP $OLVER01 ITER    9:  22 VARS NOT CONVERGED, MAX ERR/TOL      7519.8        TIME =     97.17

      UOS BLOCK E120     MODEL: HEATER                                            TIME =     97.17
      KODE = 2  NTRIAL =   4  T = 308.1500  P = 7.500000E+06  V = 0.916529      Q =-1.013084E+07

      UOS BLOCK V120     MODEL: FLASH2                                            TIME =     97.17
      KODE = 1  NTRIAL =   5  T = 308.1500  P = 7.500000E+06  V = 0.916529      Q =  0.00000    

      UOS BLOCK S130     MODEL: FSPLIT                                            TIME =     97.17
      SPLIT FRACTIONS:  0.99000D+00    0.10000D-01

      UOS BLOCK VLV140   MODEL: VALVE                                             TIME =     97.17
      KODE = 1  NTRIAL =   9  T = 301.1590  P =  100000.      V = 4.283578E-02  Q =  0.00000    
      OUTLET PRES =   0.1000E+06 PRES DROP =   0.7400E+07

      UOS BLOCK V140     MODEL: FLASH2                                            TIME =     97.17
      KODE = 1  NTRIAL =   6  T = 301.1590  P =  100000.      V = 4.283578E-02  Q =  0.00000    

      UOS BLOCK SEP150   MODEL: SEP                                               TIME =     97.17
      ---FLASH OUTLET STREAM VENT2   :
      KODE = 2   NO. TEMP ITER =    1     TEMP =  301.159    
      KPHASE =    1 KODE =    2 T =  301.159     P =  100000.     Q =  0.00000    
      ---FLASH OUTLET STREAM 151     :
      KODE = 2  NTRIAL =   3  T = 301.1590  P =  100000.      V =  0.00000      Q =  0.00000    

      UOS BLOCK P150     MODEL: PUMP                                              TIME =     97.17
      VOL-FLOW   =  0.6124E-02 , DELTA P    =  0.2000E+06 , PUMP EFF   =  0.8000    
      FLUID PWR  =   1225.     , BRAKE PWR  =   1531.     , ELEC PWR   =   1531.    

      CONVERGENCE BLOCK $OLVER02  METHOD: SECANT                                  TIME =     97.17
      ITER   0 For Specs:        D-H2

      UOS BLOCK M100     MODEL: MIXER                                             TIME =     97.17
      NO. TEMP ITER =    4     TEMP =  327.374    
      KODE = 1  NTRIAL =   6  T = 327.3738  P = 7.500000E+06  V =  1.00000      Q =  0.00000    

      UOS BLOCK HX100    MODEL: HEATX                                             TIME =     97.17
      SPECIFICATION: COLD OUTLET TEMP      483.15    
      FLOW TYPE:     COUNTERCURRENT  
      HOT:  TIN=  572.22  PIN=0.75000E+07   TOUT=  362.80  POUT=0.75000E+07
      COLD: TIN=  327.37  PIN=0.75000E+07   TOUT=  483.15  POUT=0.75000E+07
                              DUTY=0.14780E+08

      UOS BLOCK E110     MODEL: HEATER                                            TIME =     97.17
      KODE = 2  NTRIAL =   5  T = 508.1500  P = 7.500000E+06  V =  1.00000      Q = 2.405108E+06

      CONVERGENCE BLOCK $OLVER02  METHOD: SECANT                                  TIME =     97.17
      ITER   1 For Specs:        D-H2
      SPEC   1 ERROR =  0.30189E-01                          X =  0.35313    

  LOOP $OLVER02 ITER    1:     *** CONVERGED *** , MAX ERR/TOL     0.30189        TIME =     97.17

      UOS BLOCK R100     MODEL: RPLUG                                             TIME =     97.17
        AT REACTOR EXIT :
        LENGTH =   5.0000      DIAMETER =   1.6000      RESIDENCE TIME =   2.9311    
        PROCESS STREAM T =    570.87     P =   0.75000E+07 H =  -0.26417E+09 V =    1.0000    
        MIN T =   508.150     AT Z/LENGTH =   0.00000     MAX T =   570.874     AT Z/LENGTH =  0.797787    

      UOS BLOCK S100     MODEL: FSPLIT                                            TIME =     97.18
      NO. TEMP ITER =    5     TEMP =  570.871    
      KODE = 1  NTRIAL =   6  T = 570.8706  P = 7.500000E+06  V =  1.00000      Q =  0.00000    
      SPLIT FRACTIONS:  0.60000D+00    0.40000D+00

      UOS BLOCK HX220    MODEL: HEATX                                             TIME =     97.18
      SPECIFICATION: COLD OUTLET TEMP      481.15    
      FLOW TYPE:     COUNTERCURRENT  
      HOT:  TIN=  570.87  PIN=0.75000E+07   TOUT=  410.93  POUT=0.75000E+07
      COLD: TIN=  367.85  PIN=0.13900E+06   TOUT=  481.15  POUT=0.13900E+06
                              DUTY=0.59509E+07

      UOS BLOCK HX150    MODEL: HEATX                                             TIME =     97.18
      SPECIFICATION: COLD OUTLET TEMP      356.15    
      FLOW TYPE:     COUNTERCURRENT  
      HOT:  TIN=  410.93  PIN=0.75000E+07   TOUT=  397.94  POUT=0.75000E+07
      COLD: TIN=  301.20  PIN=0.30000E+06   TOUT=  356.15  POUT=0.30000E+06
                              DUTY=0.10395E+07

      UOS BLOCK M101     MODEL: MIXER                                             TIME =     97.18
      KODE = 1  NTRIAL =   4  T = 378.1031  P = 7.500000E+06  V = 0.958849      Q =  0.00000    

      UOS BLOCK E220     MODEL: HEATER                                            TIME =     97.18
      KODE = 2  NTRIAL =   3  T = 553.1500  P =  139000.      V =  1.00000      Q =  378071.    

      UOS BLOCK D200     MODEL: RADFRAC                                           TIME =     97.18

       Convergence iterations:
         OL   ML   IL     Err/Tol
          1    1    8      7.5130    
          2    1    4     0.85523    

      UOS BLOCK S220     MODEL: FSPLIT                                            TIME =     97.18
      SPLIT FRACTIONS:  0.48500D+00    0.51500D+00

      CONVERGENCE BLOCK $OLVER01  METHOD: WEGSTEIN                                TIME =     97.18
      ITER  10 For Tear Streams: 115       120       221

      --FLASH TEAR STREAM 115     
      NO. TEMP ITER =    5     TEMP =  577.207    
      KODE = 1  NTRIAL =   6  T = 577.2069  P = 7.500000E+06  V =  1.00000      Q =  0.00000    

      --FLASH TEAR STREAM 120     
      KODE = 1  NTRIAL =   5  T = 389.2637  P = 7.500000E+06  V = 0.972641      Q =  0.00000    

      --FLASH TEAR STREAM 221     
      KODE = 1  NTRIAL =   7  T = 366.9996  P =  139000.      V = 2.090798E-02  Q =  0.00000    

  LOOP $OLVER01 ITER   10:  21 VARS NOT CONVERGED, MAX ERR/TOL      5508.7        TIME =     97.18

      UOS BLOCK E120     MODEL: HEATER                                            TIME =     97.18
      KODE = 2  NTRIAL =   3  T = 308.1500  P = 7.500000E+06  V = 0.916698      Q =-1.284595E+07

      UOS BLOCK V120     MODEL: FLASH2                                            TIME =     97.18
      KODE = 1  NTRIAL =   4  T = 308.1500  P = 7.500000E+06  V = 0.916698      Q =  0.00000    

      UOS BLOCK S130     MODEL: FSPLIT                                            TIME =     97.18
      SPLIT FRACTIONS:  0.99000D+00    0.10000D-01

      UOS BLOCK VLV140   MODEL: VALVE                                             TIME =     97.18
      KODE = 1  NTRIAL =   9  T = 301.1515  P =  100000.      V = 4.288834E-02  Q =  0.00000    
      OUTLET PRES =   0.1000E+06 PRES DROP =   0.7400E+07

      UOS BLOCK V140     MODEL: FLASH2                                            TIME =     97.18
      KODE = 1  NTRIAL =   5  T = 301.1515  P =  100000.      V = 4.288834E-02  Q =  0.00000    

      UOS BLOCK SEP150   MODEL: SEP                                               TIME =     97.18
      ---FLASH OUTLET STREAM VENT2   :
      KODE = 2   NO. TEMP ITER =    1     TEMP =  301.151    
      KPHASE =    1 KODE =    2 T =  301.151     P =  100000.     Q =  0.00000    
      ---FLASH OUTLET STREAM 151     :
      KODE = 2  NTRIAL =   3  T = 301.1515  P =  100000.      V =  0.00000      Q =  0.00000    

[...]
      NO. TEMP ITER =    5     TEMP =  527.153    
      KODE = 1  NTRIAL =   6  T = 527.1528  P = 7.500000E+06  V =  1.00000      Q =  0.00000    
      NO. TEMP ITER =    5     TEMP =  519.672    
      KODE = 1  NTRIAL =   6  T = 519.6716  P = 7.500000E+06  V =  1.00000      Q =  0.00000    
      NO. TEMP ITER =    5     TEMP =  512.180    
      KODE = 1  NTRIAL =   6  T = 512.1799  P = 7.500000E+06  V =  1.00000      Q =  0.00000    

  **  ERROR WHILE GENERATING RESULTS FOR UNIT OPERATIONS BLOCK: "HX220" (MODEL: 
      "HEATX")    (WHILE GENERATING HOT-TQCURVE )              (TGSUPP.2)       
      FLASH RESULTS ARE WITHIN TOLERANCE, BUT MAY BE UNSATISFACTORY BECAUSE     
      EXTRAPOLATED EOS VAPOR VOLUME ROOT WAS USED FOR PROPERTY CALCULATIONS     
      (T= 512.1799 K, P= 7.5000D+06 Pa). CALCULATED PROPERTIES MAY BE           
      UNRELIABLE DUE TO FLASH PROBLEMS.                                         
      NO. TEMP ITER =    5     TEMP =  504.678    
      KODE = 1  NTRIAL =   6  T = 504.6778  P = 7.500000E+06  V =  1.00000      Q =  0.00000    
      NO. TEMP ITER =    5     TEMP =  497.165    
      KODE = 1  NTRIAL =   6  T = 497.1654  P = 7.500000E+06  V =  1.00000      Q =  0.00000    
      NO. TEMP ITER =    5     TEMP =  489.643    
      KODE = 1  NTRIAL =   6  T = 489.6429  P = 7.500000E+06  V =  1.00000      Q =  0.00000    
      NO. TEMP ITER =    5     TEMP =  482.110    
      KODE = 1  NTRIAL =   6  T = 482.1102  P = 7.500000E+06  V =  1.00000      Q =  0.00000    
      NO. TEMP ITER =    5     TEMP =  474.568    
      KODE = 1  NTRIAL =   6  T = 474.5677  P = 7.500000E+06  V =  1.00000      Q =  0.00000    
      NO. TEMP ITER =    5     TEMP =  467.015    
      KODE = 1  NTRIAL =   6  T = 467.0154  P = 7.500000E+06  V =  1.00000      Q =  0.00000    
      NO. TEMP ITER =    5     TEMP =  459.454    
      KODE = 1  NTRIAL =   6  T = 459.4536  P = 7.500000E+06  V =  1.00000      Q =  0.00000    
      NO. TEMP ITER =    5     TEMP =  451.883    
      KODE = 1  NTRIAL =   6  T = 451.8826  P = 7.500000E+06  V =  1.00000      Q =  0.00000    
      NO. TEMP ITER =    5     TEMP =  444.302    
      KODE = 1  NTRIAL =   6  T = 444.3025  P = 7.500000E+06  V =  1.00000      Q =  0.00000    
      NO. TEMP ITER =    4     TEMP =  436.714    
      KODE = 1  NTRIAL =   6  T = 436.7137  P = 7.500000E+06  V =  1.00000      Q =  0.00000    
      NO. TEMP ITER =    4     TEMP =  429.117    
      KODE = 1  NTRIAL =   6  T = 429.1166  P = 7.500000E+06  V =  1.00000      Q =  0.00000    
      NO. TEMP ITER =    4     TEMP =  421.512    
      KODE = 1  NTRIAL =   6  T = 421.5116  P = 7.500000E+06  V =  1.00000      Q =  0.00000    
      NO. TEMP ITER =    4     TEMP =  413.899    
      KODE = 1  NTRIAL =   5  T = 413.8992  P = 7.500000E+06  V =  1.00000      Q =  0.00000    

      BEGIN COLD-TQCURVE INLET   

      BEGIN HOT-TQCURVE  INLET   
      END HEATX TQ-CURVE CALCULATIONS FOR BLOCK HX220   

      GENERATING RESULTS FOR UOS BLOCK HX150    MODEL: HEATX                      TIME =    101.49
      SPECIFICATION: COLD OUTLET TEMP      356.15    
      FLOW TYPE:     COUNTERCURRENT  
      HOT:  TIN=  413.90  PIN=0.75000E+07   TOUT=  398.37  POUT=0.75000E+07
      COLD: TIN=  300.84  PIN=0.30000E+06   TOUT=  356.15  POUT=0.30000E+06
      AREA= 17.679           DUTY=0.11063E+07       FT=1.00000

      BEGIN HEATX TQ-CURVE CALCULATIONS FOR BLOCK HX150   

      BEGIN COLD-TQCURVE INLET   
      NO. TEMP ITER =    5     TEMP =  356.150    
      KODE = 1  NTRIAL =   3  T = 356.1500  P =  300000.      V =  0.00000      Q =  0.00000    
      NO. TEMP ITER =    5     TEMP =  353.671    
      KODE = 1  NTRIAL =   3  T = 353.6711  P =  300000.      V =  0.00000      Q =  0.00000    
      NO. TEMP ITER =    5     TEMP =  351.179    
      KODE = 1  NTRIAL =   3  T = 351.1789  P =  300000.      V =  0.00000      Q =  0.00000    
      NO. TEMP ITER =    4     TEMP =  348.673    
      KODE = 1  NTRIAL =   3  T = 348.6729  P =  300000.      V =  0.00000      Q =  0.00000    
      NO. TEMP ITER =    5     TEMP =  346.153    
      KODE = 1  NTRIAL =   3  T = 346.1531  P =  300000.      V =  0.00000      Q =  0.00000    
      NO. TEMP ITER =    5     TEMP =  343.619    
      KODE = 1  NTRIAL =   3  T = 343.6189  P =  300000.      V =  0.00000      Q =  0.00000    
      NO. TEMP ITER =    5     TEMP =  341.070    
      KODE = 1  NTRIAL =   3  T = 341.0701  P =  300000.      V =  0.00000      Q =  0.00000    
      NO. TEMP ITER =    5     TEMP =  338.506    
      KODE = 1  NTRIAL =   3  T = 338.5064  P =  300000.      V =  0.00000      Q =  0.00000    
      NO. TEMP ITER =    5     TEMP =  335.927    
      KODE = 1  NTRIAL =   3  T = 335.9275  P =  300000.      V =  0.00000      Q =  0.00000    
      NO. TEMP ITER =    5     TEMP =  333.333    
      KODE = 1  NTRIAL =   3  T = 333.3328  P =  300000.      V =  0.00000      Q =  0.00000    
      NO. TEMP ITER =    5     TEMP =  330.722    
      KODE = 1  NTRIAL =   3  T = 330.7222  P =  300000.      V =  0.00000      Q =  0.00000    
      NO. TEMP ITER =    5     TEMP =  328.095    
      KODE = 1  NTRIAL =   3  T = 328.0953  P =  300000.      V =  0.00000      Q =  0.00000    
      NO. TEMP ITER =    5     TEMP =  325.452    
      KODE = 1  NTRIAL =   3  T = 325.4515  P =  300000.      V =  0.00000      Q =  0.00000    
      NO. TEMP ITER =    5     TEMP =  322.791    
      KODE = 1  NTRIAL =   3  T = 322.7907  P =  300000.      V =  0.00000      Q =  0.00000    
      NO. TEMP ITER =    5     TEMP =  320.112    
      KODE = 1  NTRIAL =   3  T = 320.1123  P =  300000.      V =  0.00000      Q =  0.00000    
      NO. TEMP ITER =    5     TEMP =  317.416    
      KODE = 1  NTRIAL =   3  T = 317.4160  P =  300000.      V =  0.00000      Q =  0.00000    
      NO. TEMP ITER =    5     TEMP =  314.701    
      KODE = 1  NTRIAL =   3  T = 314.7013  P =  300000.      V =  0.00000      Q =  0.00000    
      NO. TEMP ITER =    5     TEMP =  311.968    
      KODE = 1  NTRIAL =   3  T = 311.9678  P =  300000.      V =  0.00000      Q =  0.00000    
      NO. TEMP ITER =    5     TEMP =  309.215    
      KODE = 1  NTRIAL =   3  T = 309.2151  P =  300000.      V =  0.00000      Q =  0.00000    
      NO. TEMP ITER =    5     TEMP =  306.443    
      KODE = 1  NTRIAL =   3  T = 306.4427  P =  300000.      V =  0.00000      Q =  0.00000    
      NO. TEMP ITER =    5     TEMP =  303.650    
      KODE = 1  NTRIAL =   3  T = 303.6502  P =  300000.      V =  0.00000      Q =  0.00000    
      NO. TEMP ITER =    5     TEMP =  300.837    
      KODE = 1  NTRIAL =   3  T = 300.8371  P =  300000.      V =  0.00000      Q =  0.00000    

      BEGIN HOT-TQCURVE  INLET   
      NO. TEMP ITER =    4     TEMP =  413.899    
      KODE = 1  NTRIAL =   5  T = 413.8992  P = 7.500000E+06  V =  1.00000      Q =  0.00000    
      NO. TEMP ITER =    4     TEMP =  412.558    
      KODE = 1  NTRIAL =   5  T = 412.5583  P = 7.500000E+06  V =  1.00000      Q =  0.00000    
      NO. TEMP ITER =    4     TEMP =  411.217    
      KODE = 1  NTRIAL =   5  T = 411.2173  P = 7.500000E+06  V =  1.00000      Q =  0.00000    
      NO. TEMP ITER =    4     TEMP =  409.876    
      KODE = 1  NTRIAL =   5  T = 409.8760  P = 7.500000E+06  V =  1.00000      Q =  0.00000    
      NO. TEMP ITER =    4     TEMP =  408.535    
      KODE = 1  NTRIAL =   5  T = 408.5345  P = 7.500000E+06  V =  1.00000      Q =  0.00000    
      NO. TEMP ITER =    4     TEMP =  407.193    
      KODE = 1  NTRIAL =   5  T = 407.1929  P = 7.500000E+06  V =  1.00000      Q =  0.00000    
      KODE = 1  NTRIAL =  10  T = 405.9796  P = 7.500000E+06  V = 0.999874      Q =  0.00000    
      KODE = 3  NTRIAL =   9  T = 406.0529  P = 7.500000E+06  V =  1.00000      Q = -308167.    
      KODE = 1  NTRIAL =   9  T = 405.9796  P = 7.500000E+06  V = 0.999874      Q =  0.00000    
      KODE = 1  NTRIAL =   5  T = 405.4907  P = 7.500000E+06  V = 0.999040      Q =  0.00000    
      KODE = 1  NTRIAL =   5  T = 404.9992  P = 7.500000E+06  V = 0.998208      Q =  0.00000    
      KODE = 1  NTRIAL =   5  T = 404.5051  P = 7.500000E+06  V = 0.997379      Q =  0.00000    
      KODE = 1  NTRIAL =   5  T = 404.0084  P = 7.500000E+06  V = 0.996552      Q =  0.00000    
      KODE = 1  NTRIAL =   5  T = 403.5092  P = 7.500000E+06  V = 0.995728      Q =  0.00000    
      KODE = 1  NTRIAL =   5  T = 403.0073  P = 7.500000E+06  V = 0.994906      Q =  0.00000    
      KODE = 1  NTRIAL =   5  T = 402.5028  P = 7.500000E+06  V = 0.994087      Q =  0.00000    
      KODE = 1  NTRIAL =   5  T = 401.9958  P = 7.500000E+06  V = 0.993270      Q =  0.00000    
      KODE = 1  NTRIAL =   5  T = 401.4862  P = 7.500000E+06  V = 0.992455      Q =  0.00000    
      KODE = 1  NTRIAL =   5  T = 400.9740  P = 7.500000E+06  V = 0.991643      Q =  0.00000    
      KODE = 1  NTRIAL =   5  T = 400.4592  P = 7.500000E+06  V = 0.990834      Q =  0.00000    
      KODE = 1  NTRIAL =   5  T = 399.9418  P = 7.500000E+06  V = 0.990026      Q =  0.00000    
      KODE = 1  NTRIAL =   5  T = 399.4219  P = 7.500000E+06  V = 0.989222      Q =  0.00000    
      KODE = 1  NTRIAL =   5  T = 398.8994  P = 7.500000E+06  V = 0.988419      Q =  0.00000    
      KODE = 1  NTRIAL =   5  T = 398.3744  P = 7.500000E+06  V = 0.987619      Q =  0.00000    

      BEGIN COLD-TQCURVE INLET   
      NO. TEMP ITER =    5     TEMP =  341.454    
      KODE = 1  NTRIAL =   3  T = 341.4544  P =  300000.      V =  0.00000      Q =  0.00000    

      BEGIN HOT-TQCURVE  INLET   
      END HEATX TQ-CURVE CALCULATIONS FOR BLOCK HX150   

      GENERATING RESULTS FOR UOS BLOCK E110     MODEL: HEATER                     TIME =    101.49

      GENERATING RESULTS FOR UOS BLOCK E300     MODEL: HEATER                     TIME =    101.49

      GENERATING RESULTS FOR UOS BLOCK P150     MODEL: PUMP                       TIME =    101.49
      KODE = 5  NTRIAL =   4  T = 300.7994  P =  12948.5      V =  0.00000      Q = -401.215    
      VOL-FLOW   =  0.6500E-02 , DELTA P    =  0.2000E+06 , PUMP EFF   =  0.8000    
      FLUID PWR  =   1300.     , BRAKE PWR  =   1625.     , ELEC PWR   =   1625.    
      NPSH AVAIL =   102.6    

      GENERATING RESULTS FOR UOS BLOCK E220     MODEL: HEATER                     TIME =    101.49

      CHECKING PHASE EQUILIBRIUM RESULTS                                          TIME =    101.49

      CHECKING PHASE EQUILIBRIUM RESULTS                                          TIME =    101.49

 STREAM MEOH    
        SUBSTREAM MIXED     F =  8.736582808076095E-02  T =   337.359157674250      P =   100000.000000000    
                            H =  -234584876.653769      V =   0.00000000000000      L =   1.00000000000000    
                            ENTROPY =  -7134.76635097818      DENSITY =   744.475503945511      MW =   32.0344605861933    
        H2O       4.795547284646461E-05  CO2        0.00000000000000      N2         0.00000000000000    
        O2         0.00000000000000      CO         0.00000000000000      H2         0.00000000000000    
        MEOH      8.731787260791447E-02

 STREAM 220     
        SUBSTREAM MIXED     F =  0.278084410713110      T =   366.918009387684      P =   139000.000000000    
                            H =  -272844699.323986      V =   0.00000000000000      L =   1.00000000000000    
                            ENTROPY =  -7689.20958179620      DENSITY =   859.258342087387      MW =   20.1342738260168    
        H2O       0.236075129289686      CO2        0.00000000000000      N2         0.00000000000000    
        O2         0.00000000000000      CO         0.00000000000000      H2         0.00000000000000    
        MEOH      4.200928142342430E-02
      BEGIN HCURVE   CALCULATIONS FOR BLOCK E120    

      BEGIN HCURVE       1
      KODE = 1  NTRIAL =  10  T = 377.2708  P = 7.500000E+06  V = 0.959869      Q =  0.00000    
      KODE = 1  NTRIAL =   5  T = 375.2291  P = 7.500000E+06  V = 0.957597      Q =  0.00000    
      KODE = 1  NTRIAL =   5  T = 373.1539  P = 7.500000E+06  V = 0.955362      Q =  0.00000    
      KODE = 1  NTRIAL =   5  T = 371.0438  P = 7.500000E+06  V = 0.953165      Q =  0.00000    
      KODE = 1  NTRIAL =   6  T = 368.8966  P = 7.500000E+06  V = 0.951010      Q =  0.00000    
      KODE = 1  NTRIAL =   6  T = 366.7106  P = 7.500000E+06  V = 0.948899      Q =  0.00000    
      KODE = 1  NTRIAL =   6  T = 364.4835  P = 7.500000E+06  V = 0.946835      Q =  0.00000    
      KODE = 1  NTRIAL =   5  T = 362.2132  P = 7.500000E+06  V = 0.944820      Q =  0.00000    
      KODE = 1  NTRIAL =   5  T = 359.8974  P = 7.500000E+06  V = 0.942857      Q =  0.00000    
      KODE = 1  NTRIAL =   5  T = 357.5337  P = 7.500000E+06  V = 0.940948      Q =  0.00000    
      KODE = 1  NTRIAL =   5  T = 355.1198  P = 7.500000E+06  V = 0.939097      Q =  0.00000    
      KODE = 1  NTRIAL =   5  T = 352.6533  P = 7.500000E+06  V = 0.937305      Q =  0.00000    
      KODE = 1  NTRIAL =   5  T = 350.1319  P = 7.500000E+06  V = 0.935574      Q =  0.00000    
      KODE = 1  NTRIAL =   6  T = 347.5532  P = 7.500000E+06  V = 0.933907      Q =  0.00000    
      KODE = 1  NTRIAL =   6  T = 344.9152  P = 7.500000E+06  V = 0.932305      Q =  0.00000    
      KODE = 1  NTRIAL =   6  T = 342.2157  P = 7.500000E+06  V = 0.930769      Q =  0.00000    
      KODE = 1  NTRIAL =   6  T = 339.4529  P = 7.500000E+06  V = 0.929301      Q =  0.00000    
      KODE = 1  NTRIAL =   6  T = 336.6251  P = 7.500000E+06  V = 0.927902      Q =  0.00000    
      KODE = 1  NTRIAL =   6  T = 333.7309  P = 7.500000E+06  V = 0.926571      Q =  0.00000    
      KODE = 1  NTRIAL =   6  T = 330.7710  P = 7.500000E+06  V = 0.925304      Q =  0.00000    
      KODE = 1  NTRIAL =   6  T = 327.7411  P = 7.500000E+06  V = 0.924108      Q =  0.00000    
      KODE = 1  NTRIAL =   6  T = 324.6427  P = 7.500000E+06  V = 0.922978      Q =  0.00000    
      KODE = 1  NTRIAL =   6  T = 321.4760  P = 7.500000E+06  V = 0.921911      Q =  0.00000    
      KODE = 1  NTRIAL =   6  T = 318.2418  P = 7.500000E+06  V = 0.920906      Q =  0.00000    
      KODE = 1  NTRIAL =   6  T = 314.9413  P = 7.500000E+06  V = 0.919957      Q =  0.00000    
      KODE = 1  NTRIAL =   6  T = 311.5765  P = 7.500000E+06  V = 0.919060      Q =  0.00000    
      KODE = 1  NTRIAL =   6  T = 308.1500  P = 7.500000E+06  V = 0.918211      Q =  0.00000    
      END HCURVE   CALCULATIONS FOR BLOCK E120    

 STREAM 301     
        SUBSTREAM MIXED     F =  0.350073753989579      T =   308.150000000000      P =   2740000.00000000    
                            H =   316997.460822137      V =   1.00000000000000      L =   0.00000000000000    
                            ENTROPY =  -13148.4641707614      DENSITY =   2.12139755074120      MW =   2.01588000000000    
        H2O        0.00000000000000      CO2        0.00000000000000      N2         0.00000000000000    
        O2         0.00000000000000      CO         0.00000000000000      H2        0.350073753989578    
        MEOH       0.00000000000000    

      BEGIN HEATX TQ-CURVE REPORT FOR BLOCK HX100   

      BEGIN COLD-TQCURVE INLET   

      BEGIN HOT-TQCURVE  INLET   
      END HEATX TQ-CURVE REPORT FOR BLOCK HX100   

      BEGIN HEATX TQ-CURVE REPORT FOR BLOCK HX150   

      BEGIN COLD-TQCURVE INLET   

      BEGIN HOT-TQCURVE  INLET   
      END HEATX TQ-CURVE REPORT FOR BLOCK HX150   

      BEGIN HEATX TQ-CURVE REPORT FOR BLOCK HX220   

      BEGIN COLD-TQCURVE INLET   

      BEGIN HOT-TQCURVE  INLET   
      END HEATX TQ-CURVE REPORT FOR BLOCK HX220   

 STREAM 131     
        SUBSTREAM MIXED     F =   2.59182964965302      T =   308.149991787421      P =   7500000.00000000    
                            H =  -99623804.3172672      V =   1.00000000000000      L =   0.00000000000000    
                            ENTROPY =  -1446.78613375014      DENSITY =   40.6654501222263      MW =   14.0331376502000    
        H2O       1.787675526162775E-03  CO2       0.588298542038652      N2        7.508937347914127E-03
        O2        3.663627602063158E-03  CO        0.225767460199194      H2         1.75683226710382    
        MEOH      7.971139835211615E-03

 STREAM PURGE1  
        SUBSTREAM MIXED     F =  2.618009747124261E-02  T =   308.149991787421      P =   7500000.00000000    
                            H =  -99623804.3172672      V =   1.00000000000000      L =   0.00000000000000    
                            ENTROPY =  -1446.78613375014      DENSITY =   40.6654501222263      MW =   14.0331376502000    
        H2O       1.805732854709874E-05  CO2       5.942409515541936E-03  N2        7.584785199913260E-05
        O2        3.700633941477937E-05  CO        2.280479395951454E-03  H2        1.774578047579618E-02
        MEOH      8.051656399203653E-05

 STREAM H2O-4   
        SUBSTREAM MIXED     F =  0.134870939195858      T =   366.918009387684      P =   139000.000000000    
                            H =  -272844699.323986      V =   0.00000000000000      L =   1.00000000000000    
                            ENTROPY =  -7689.20958179620      DENSITY =   859.258342087387      MW =   20.1342738260168    
        H2O       0.114496437705498      CO2        0.00000000000000      N2         0.00000000000000    
        O2         0.00000000000000      CO         0.00000000000000      H2         0.00000000000000    
        MEOH      2.037450149036079E-02

 STREAM 221     
        SUBSTREAM MIXED     F =  0.143213899785693      T =   366.918009387684      P =   139000.000000000    
                            H =  -272844693.848606      V =   0.00000000000000      L =   1.00000000000000    
                            ENTROPY =  -7689.20958179620      DENSITY =   859.258342087387      MW =   20.1342754907667    
        H2O       0.121579038158518      CO2        0.00000000000000      N2         0.00000000000000    
        O2         0.00000000000000      CO         0.00000000000000      H2         0.00000000000000    
        MEOH      2.163486162717507E-02

 STREAM 300     
        SUBSTREAM MIXED     F =  0.350073753989579      T =   436.917446492439      P =   2740000.00000000    
                            H =   4073166.03108168      V =   1.00000000000000      L =   0.00000000000000    
                            ENTROPY =  -8097.97438312306      DENSITY =   1.50192786827856      MW =   2.01588000000000    
        H2O        0.00000000000000      CO2        0.00000000000000      N2         0.00000000000000    
        O2         0.00000000000000      CO         0.00000000000000      H2        0.350073753989578    
        MEOH       0.00000000000000    

 STREAM 302     
        SUBSTREAM MIXED     F =  0.350073753989579      T =   451.806822910251      P =   7500000.00000000    
                            H =   4577045.01776638      V =   1.00000000000000      L =   0.00000000000000    
                            ENTROPY =  -11776.1813830990      DENSITY =   3.89573475137108      MW =   2.01588000000000    
        H2O        0.00000000000000      CO2        0.00000000000000      N2         0.00000000000000    
        O2         0.00000000000000      CO         0.00000000000000      H2        0.350073753989578    
        MEOH       0.00000000000000    

RUN SAVED



 *** SUMMARY OF ERRORS ***

                  PHYSICAL
                  PROPERTY  SYSTEM  SIMULATION
 TERMINAL ERRORS      0        0         0
   SEVERE ERRORS      0        0         0
          ERRORS      0        0         2
        WARNINGS      0        0         0


 *** SUMMARY OF ERRORS ***

                  PHYSICAL
                  PROPERTY  SYSTEM  SIMULATION
 TERMINAL ERRORS      0        0         0
   SEVERE ERRORS      0        0         0
          ERRORS      0        0         2
        WARNINGS      0        0         0
